*FUSE:Fuse Subcircuit Parameters
*CURRENT    = Fuse current
*RESISTANCE = Internal resistance
.SUBCKT Fuse 1 2 PARAMS: CURRENT=1 RESISTANCE=1m
SW1 1 2 3 0 SMOD OFF
BNLV 3 0 V=(abs(v(1,2)))
.MODEL SMOD SW (VT={(CURRENT*RESISTANCE)} RON=1g ROFF={RESISTANCE})
.ENDS FUSE
* FUSE
*.subckt fuse2 1 2 params: R0=1m Imax=16
*v1 1 in 0
*e1 int1 0 value={if(abs(i(v1))>Imax,1,0)}
*S1 in 2 int1 0 Smod
*.model Smod Vswitch(Ron={1e20} Roff={R0})
*.ends
