.SUBCKT C0805C151J5GAC7800 1 6
*Temp = 25degC, Bias = 0VDC, Center Frequency = 1000000 Hz
*KEMET Model RLC Cerm
R1 3 4 2.52169704437256
R2 2 5 5.60000038146973
R3 1 6 99999997952
L1 1 2 2.63999988536767E-11
L2 2 3 5.01599978219858E-10
C1 4 6 1.49999998533268E-10
C2 5 6 1.04999996721745E-13
.ENDS C0805C151J5GAC7800
