.SUBCKT C0805C104K5RAC7800 1 6
*Temp = 25°C, Bias = 0VDC, Center Frequency = 3000000000 Hz
*KEMET Model RLC Cerm
R1 3 4 0.57859080012911
R2 2 5 1.89999997615814
R3 1 6 10000000000
L1 1 2 2.04999991243047E-11
L2 2 3 3.89499983361789E-10
C1 4 6 8.74246808280077E-08
C2 5 6 3.25E-12
.ENDS
