.SUBCKT C0805C475K4RAC7800 1 6
*Temp = 25degC, Bias = 0VDC, Center Frequency = 1000000 Hz
*KEMET Model RLC Cerm
R1 3 4 0.00508115440607071
R2 2 5 0.46000000834465
R3 1 6 238100000
L1 1 2 1.32499997085311E-11
L2 2 3 2.51749994462092E-10
C1 4 6 3.7970132780174E-06
C2 5 6 4.03999996185303E-12
.ENDS C0805C475K4RAC7800
