.SUBCKT C0805C105J4RAC7800 1 6
*Temp = 25degC, Bias = 0VDC, Center Frequency = 1000000 Hz
*KEMET Model RLC Cerm
R1 3 4 0.0118415961042047
R2 2 5 1.0110000371933
R3 1 6 1000000000
L1 1 2 1.75000000601777E-11
L2 2 3 3.32500001143376E-10
C1 4 6 9.0405075070521E-07
C2 5 6 3.25E-12
.ENDS C0805C105J4RAC7800
