*
* This spice model was created using the Altium Spice Model Wizard
* Created: 11:00 on 17 February, 2023
*
* Component Name: KEMET_COMM_X7R_0805
*
.MODEL KEMET_COMM_X7R_0805 C
+(
+        DEFW = 1.25e-6
+)
*
* Spice model KEMET_COMM_X7R_0805 has been assigned the following parameters:
*
*       DEFW: Default device width.............(Unit: meters)