.SUBCKT C0805C222K5RAC7800 1 6
*Temp = 25degC, Bias = 0VDC, Center Frequency = 1000000 Hz
*KEMET Model RLC Cerm
R1 3 4 1.07665431499481
R2 2 5 18.2999992370605
R3 1 6 99999997952
L1 1 2 1.5499999894697E-11
L2 2 3 2.94499997999242E-10
C1 4 6 1.98891147995539E-09
C2 5 6 3.25E-12
.ENDS C0805C222K5RAC7800
