.SUBCKT C1206X106M3RAC7800 1 6
*Temp = 25°C, Bias = 0VDC, Center Frequency = 3000000000 Hz
*KEMET Model RLC Cerm
R1 3 4 2.42349674812048
R2 2 5 0.810000002384186
R3 1 6 100000000
L1 1 2 3.39999980767961E-11
L2 2 3 6.45999963459126E-10
C1 4 6 8.74246779858368E-06
C2 5 6 6.00000023841858E-13
.ENDS
