.SUBCKT T491C106K025AT7280 1 8
*Temp = 25degC, Bias = 0VDC, Center Frequency = 1000000 Hz
*KEMET Model RLC Tant5RC
R1 2 3 0.170702308416367
R2 3 4 0.0690311565995216
R3 4 5 0.0690311565995216
R4 5 6 0.0690311565995216
R5 6 7 0.0690311565995216
R6 2 8 10000000
L1 1 2 1.79999992688806E-09
C1 3 8 3.2258064516129E-07
C2 4 8 6.45161290322581E-07
C3 5 8 1.29032258064516E-06
C4 6 8 2.58064516129032E-06
C5 7 8 5.16129032258064E-06
.ENDS T491C106K025AT7280
