.SUBCKT C1206X106M3RAC7800 1 6
*Temp = 25degC, Bias = 0VDC, Center Frequency = 1000000 Hz
*KEMET Model RLC Cerm
R1 3 4 0.00882311630994082
R2 2 5 0.810000002384186
R3 1 6 100000000
L1 1 2 3.70000002858362E-11
L2 2 3 7.03000005430887E-10
C1 4 6 9.04050648387056E-06
C2 5 6 6.00000023841858E-13
.ENDS C1206X106M3RAC7800
