.SUBCKT C0805C151J5GAC7800 1 6
*Temp = 25°C, Bias = 0VDC, Center Frequency = 3000000000 Hz
*KEMET Model RLC Cerm
R1 3 4 0.0646260099556367
R2 2 5 5.60000038146973
R3 1 6 99999997952
L1 1 2 2.6399999261046E-11
L2 2 3 5.01599985959874E-10
C1 4 6 1.47392190933549E-10
C2 5 6 1.04999996721745E-13
.ENDS
