.SUBCKT C0805C105K5RAC7800 1 6
*Temp = 25°C, Bias = 0VDC, Center Frequency = 3000000000 Hz
*KEMET Model RLC Cerm
R1 3 4 0.682735072692112
R2 2 5 0.75
R3 1 6 1000000000
L1 1 2 2.700000223399E-11
L2 2 3 5.1300004244581E-10
C1 4 6 8.74246836701786E-07
C2 5 6 3.25E-12
.ENDS
