.SUBCKT C0805C470K5GAC7800 1 6
*Temp = 25degC, Bias = 0VDC, Center Frequency = 1000000 Hz
*KEMET Model RLC Cerm
R1 3 4 8.37020587921143
R2 2 5 10.789999961853
R3 1 6 99999997952
L1 1 2 2.8549998476457E-11
L2 2 3 5.42449971052683E-10
C1 4 6 4.70000011132399E-11
C2 5 6 1.04999996721745E-13
.ENDS C0805C470K5GAC7800
