.SUBCKT T491B225K020AT 1 8
*Temp = 25degC, Bias = 0VDC, Center Frequency = 1000000 Hz
*KEMET Model RLC Tant5RC
R1 2 3 0.364713549613953
R2 3 4 0.161956772208214
R3 4 5 0.161956772208214
R4 5 6 0.161956772208214
R5 6 7 0.161956772208214
R6 2 8 45450000
L1 1 2 1.50000001308825E-09
C1 3 8 7.09677419354839E-08
C2 4 8 1.41935483870968E-07
C3 5 8 2.83870967741936E-07
C4 6 8 5.67741935483871E-07
C5 7 8 1.13548387096774E-06
.ENDS
