.SUBCKT T491B474K050AT 1 8
*Temp = 25degC, Bias = 0VDC, Center Frequency = 1000000 Hz
*KEMET Model RLC Tant5RC
R1 2 3 0.39483779668808
R2 3 4 0.177018895745277
R3 4 5 0.177018895745277
R4 5 6 0.177018895745277
R5 6 7 0.177018895745277
R6 2 8 212800000
L1 1 2 1.50000001308825E-09
C1 3 8 1.51612903225806E-08
C2 4 8 3.03225806451613E-08
C3 5 8 6.06451612903226E-08
C4 6 8 1.21290322580645E-07
C5 7 8 2.4258064516129E-07
.ENDS
