.SUBCKT C0805C103K5RAC7800 1 6
*Temp = 25°C, Bias = 0VDC, Center Frequency = 3000000000 Hz
*KEMET Model RLC Cerm
R1 3 4 0.191322281040753
R2 2 5 6.09999990463257
R3 1 6 99999997952
L1 1 2 2.48999991369355E-11
L2 2 3 4.73099983601774E-10
C1 4 6 8.74246808280077E-09
C2 5 6 3.25E-12
.ENDS
