.SUBCKT C0805C104K5RAC7800 1 6
*Temp = 25degC, Bias = 0VDC, Center Frequency = 1000000 Hz
*KEMET Model RLC Cerm
R1 3 4 0.0358169563114643
R2 2 5 1.89999997615814
R3 1 6 10000000000
L1 1 2 1.31500005329244E-11
L2 2 3 2.49850010125563E-10
C1 4 6 9.04050736494355E-08
C2 5 6 3.25E-12
.ENDS C0805C104K5RAC7800
