.SUBCKT T491B225K020AT 1 8
*Temp = 25degC, Bias = 0VDC, Center Frequency = 1000000 Hz
*KEMET Model RLC Tant5RC
R1 2 3 0.364713549613953
R2 3 4 0.161956772208214
R3 4 5 0.161956772208214
R4 5 6 0.161956772208214
R5 6 7 0.161956772208214
R6 2 8 45450000
L1 1 2 1.50000001308825E-09
C1 3 8 7.09677419354839E-08
C2 4 8 1.41935483870968E-07
C3 5 8 2.83870967741936E-07
C4 6 8 5.67741935483871E-07
C5 7 8 1.13548387096774E-06
.ENDS T491B225K020AT

.SUBCKT T491B474K050AT 1 8
*Temp = 25degC, Bias = 0VDC, Center Frequency = 1000000 Hz
*KEMET Model RLC Tant5RC
R1 2 3 0.39483779668808
R2 3 4 0.177018895745277
R3 4 5 0.177018895745277
R4 5 6 0.177018895745277
R5 6 7 0.177018895745277
R6 2 8 212800000
L1 1 2 1.50000001308825E-09
C1 3 8 1.51612903225806E-08
C2 4 8 3.03225806451613E-08
C3 5 8 6.06451612903226E-08
C4 6 8 1.21290322580645E-07
C5 7 8 2.4258064516129E-07
.ENDS T491B474K050AT

.SUBCKT T491C106K025AT7280 1 8
*Temp = 25degC, Bias = 0VDC, Center Frequency = 1000000 Hz
*KEMET Model RLC Tant5RC
R1 2 3 0.170702308416367
R2 3 4 0.0690311565995216
R3 4 5 0.0690311565995216
R4 5 6 0.0690311565995216
R5 6 7 0.0690311565995216
R6 2 8 10000000
L1 1 2 1.79999992688806E-09
C1 3 8 3.2258064516129E-07
C2 4 8 6.45161290322581E-07
C3 5 8 1.29032258064516E-06
C4 6 8 2.58064516129032E-06
C5 7 8 5.16129032258064E-06
.ENDS T491C106K025AT7280

