.SUBCKT C0805C103K5RAC7800 1 6
*Temp = 25degC, Bias = 0VDC, Center Frequency = 1000000 Hz
*KEMET Model RLC Cerm
R1 3 4 0.279127031564713
R2 2 5 6.09999990463257
R3 1 6 99999997952
L1 1 2 1.42499997912715E-11
L2 2 3 2.70749996034159E-10
C1 4 6 9.04050700967218E-09
C2 5 6 3.25E-12
.ENDS C0805C103K5RAC7800
