 .SUBCKT T495D106K035ATE260 1 8
*Temp = 25degC, Bias = 0VDC, Center Frequency = 1000000 Hz
*KEMET Model RLC Tant5RC
R1 2 3 0.0301907546818256
R2 3 4 0.0150953773409128
R3 4 5 0.0150953773409128
R4 5 6 0.0150953773409128
R5 6 7 0.0905722677707672
R6 2 8 10000000
L1 1 2 2.19999995998421E-09
C1 3 8 3.2258064516129E-07
C2 4 8 6.45161290322581E-07
C3 5 8 1.29032258064516E-06
C4 6 8 2.58064516129032E-06
C5 7 8 5.16129032258064E-06
.ENDS T495D106K035ATE260

.SUBCKT T495X227K016ATE100 1 8
*Temp = 25degC, Bias = 0VDC, Center Frequency = 1000000 Hz
*KEMET Model RLC Tant5RC
R1 2 3 0.050841610878706
R2 3 4 0.0228708051145077
R3 4 5 0.0228708051145077
R4 5 6 0.0228708051145077
R5 6 7 0.0228708051145077
R6 2 8 454500
L1 1 2 2.46145548388199E-09
C1 3 8 7.09677419354839E-06
C2 4 8 1.41935483870968E-05
C3 5 8 2.83870967741935E-05
C4 6 8 5.67741935483871E-05
C5 7 8 0.000113548387096774
.ENDS T495X227K016ATE100

.SUBCKT T495X477K010ATE100 1 8
*Temp = 25degC, Bias = 0VDC, Center Frequency = 1000000 Hz
*KEMET Model RLC Tant5RC
R1 2 3 0.0566910430788994
R2 3 4 0.0232455208897591
R3 4 5 0.0232455208897591
R4 5 6 0.0232455208897591
R5 6 7 0.0232455208897591
R6 2 8 212800
L1 1 2 2.38506525640503E-09
C1 3 8 1.51612903225806E-05
C2 4 8 3.03225806451613E-05
C3 5 8 6.06451612903226E-05
C4 6 8 0.000121290322580645
C5 7 8 0.00024258064516129
.ENDS T495X477K010ATE100


