.SUBCKT C0805C151J5GAC7800 1 6
*Temp = 25degC, Bias = 0VDC, Center Frequency = 1000000 Hz
*KEMET Model RLC Cerm
R1 3 4 2.52169704437256
R2 2 5 5.60000038146973
R3 1 6 99999997952
L1 1 2 2.63999988536767E-11
L2 2 3 5.01599978219858E-10
C1 4 6 1.49999998533268E-10
C2 5 6 1.04999996721745E-13
.ENDS C0805C151J5GAC7800

.SUBCKT C0805C180J5GAC7800 1 6
*Temp = 25degC, Bias = 0VDC, Center Frequency = 1000000 Hz
*KEMET Model RLC Cerm
R1 3 4 23.0510444641113
R2 2 5 17.9899997711182
R3 1 6 99999997952
L1 1 2 2.63999988536767E-11
L2 2 3 5.01599978219858E-10
C1 4 6 1.80000007954373E-11
C2 5 6 1.04999996721745E-13
.ENDS C0805C180J5GAC7800

.SUBCKT C0805C470K5GAC7800 1 6
*Temp = 25degC, Bias = 0VDC, Center Frequency = 1000000 Hz
*KEMET Model RLC Cerm
R1 3 4 8.37020587921143
R2 2 5 10.789999961853
R3 1 6 99999997952
L1 1 2 2.8549998476457E-11
L2 2 3 5.42449971052683E-10
C1 4 6 4.70000011132399E-11
C2 5 6 1.04999996721745E-13
.ENDS C0805C470K5GAC7800

.SUBCKT C1825C511JZGACTU 1 6
*Temp = 25degC, Bias = 0VDC, Center Frequency = 1000000 Hz
*KEMET Model RLC Cerm
R1 3 4 0.536594569683075
R2 2 5 3.09999990463257
R3 1 6 99999997952
L1 1 2 5.59500001884317E-11
L2 2 3 1.0630500035802E-09
C1 4 6 5.09999986686438E-10
C2 5 6 4.49999988079071E-13
.ENDS C1825C511JZGACTU

