.SUBCKT C0805C222K5RAC 1 6
*Temp = 25°C, Bias = 0VDC, Center Frequency = 3000000000 Hz
*KEMET Model RLC Cerm
R1 3 4 0.274888182161117
R2 2 5 18.2999992370605
R3 1 6 99999997952
L1 1 2 2.00000004707133E-11
L2 2 3 3.80000008943553E-10
C1 4 6 1.92334304038866E-09
C2 5 6 3.25E-12
.ENDS
