.SUBCKT C0805C225K3RAC7800 1 6
*Temp = 25degC, Bias = 0VDC, Center Frequency = 1000000 Hz
*KEMET Model RLC Cerm
R1 3 4 0.00722663849592209
R2 2 5 0.639999985694885
R3 1 6 490200000
L1 1 2 1.18500001478061E-11
L2 2 3 2.25150002808316E-10
C1 4 6 1.8442635791871E-06
C2 5 6 1E-11
.ENDS C0805C225K3RAC7800
