.SUBCKT C0805C180J5GAC7800 1 6
*Temp = 25°C, Bias = 0VDC, Center Frequency = 3000000000 Hz
*KEMET Model RLC Cerm
R1 3 4 0.180290282458529
R2 2 5 17.9899997711182
R3 1 6 99999997952
L1 1 2 2.6399999261046E-11
L2 2 3 5.01599985959874E-10
C1 4 6 1.76870642221322E-11
C2 5 6 1.04999996721745E-13
.ENDS
