.SUBCKT C0805C223K3RAC7800 1 6
*Temp = 25degC, Bias = 0VDC, Center Frequency = 1000000 Hz
*KEMET Model RLC Cerm
R1 3 4 0.146730825304985
R2 2 5 4.50999975204468
R3 1 6 45449998336
L1 1 2 1.65000013652161E-11
L2 2 3 3.13500025939106E-10
C1 4 6 1.98891179081784E-08
C2 5 6 3.25E-12
.ENDS C0805C223K3RAC7800
