.SUBCKT C0805C103J5RAC7210 1 6
*Temp = 25degC, Bias = 0VDC, Center Frequency = 1000000 Hz
*KEMET Model RLC Cerm
R1 3 4 0.279127031564713
R2 2 5 6.09999990463257
R3 1 6 99999997952
L1 1 2 1.42499997912715E-11
L2 2 3 2.70749996034159E-10
C1 4 6 9.04050700967218E-09
C2 5 6 3.25E-12
.ENDS C0805C103J5RAC7210

.SUBCKT C0805C103K5RAC7800 1 6
*Temp = 25degC, Bias = 0VDC, Center Frequency = 1000000 Hz
*KEMET Model RLC Cerm
R1 3 4 0.279127031564713
R2 2 5 6.09999990463257
R3 1 6 99999997952
L1 1 2 1.42499997912715E-11
L2 2 3 2.70749996034159E-10
C1 4 6 9.04050700967218E-09
C2 5 6 3.25E-12
.ENDS C0805C103K5RAC7800

.SUBCKT C0805C104J5RAC7210 1 6
*Temp = 25degC, Bias = 0VDC, Center Frequency = 1000000 Hz
*KEMET Model RLC Cerm
R1 3 4 0.0358169563114643
R2 2 5 1.89999997615814
R3 1 6 10000000000
L1 1 2 1.31500005329244E-11
L2 2 3 2.49850010125563E-10
C1 4 6 9.04050736494355E-08
C2 5 6 3.25E-12
.ENDS C0805C104J5RAC7210

 .SUBCKT C0805C104K5RAC7800 1 6
*Temp = 25degC, Bias = 0VDC, Center Frequency = 1000000 Hz
*KEMET Model RLC Cerm
R1 3 4 0.0358169563114643
R2 2 5 1.89999997615814
R3 1 6 10000000000
L1 1 2 1.31500005329244E-11
L2 2 3 2.49850010125563E-10
C1 4 6 9.04050736494355E-08
C2 5 6 3.25E-12
.ENDS C0805C104K5RAC7800

.SUBCKT C0805C105J4RAC7800 1 6
*Temp = 25degC, Bias = 0VDC, Center Frequency = 1000000 Hz
*KEMET Model RLC Cerm
R1 3 4 0.0118415961042047
R2 2 5 1.0110000371933
R3 1 6 1000000000
L1 1 2 1.75000000601777E-11
L2 2 3 3.32500001143376E-10
C1 4 6 9.0405075070521E-07
C2 5 6 3.25E-12
.ENDS C0805C105J4RAC7800

.SUBCKT C0805C105K5RAC7800 1 6
*Temp = 25degC, Bias = 0VDC, Center Frequency = 1000000 Hz
*KEMET Model RLC Cerm
R1 3 4 0.00934751704335213
R2 2 5 0.75
R3 1 6 1000000000
L1 1 2 1.80799999971448E-11
L2 2 3 3.43519999945752E-10
C1 4 6 9.0405075070521E-07
C2 5 6 3.25E-12
.ENDS C0805C105K5RAC7800

  .SUBCKT C0805C222K5RAC7800 1 6
*Temp = 25degC, Bias = 0VDC, Center Frequency = 1000000 Hz
*KEMET Model RLC Cerm
R1 3 4 1.07665431499481
R2 2 5 18.2999992370605
R3 1 6 99999997952
L1 1 2 1.5499999894697E-11
L2 2 3 2.94499997999242E-10
C1 4 6 1.98891147995539E-09
C2 5 6 3.25E-12
.ENDS C0805C222K5RAC7800

.SUBCKT C0805C223K3RAC7800 1 6
*Temp = 25degC, Bias = 0VDC, Center Frequency = 1000000 Hz
*KEMET Model RLC Cerm
R1 3 4 0.146730825304985
R2 2 5 4.50999975204468
R3 1 6 45449998336
L1 1 2 1.65000013652161E-11
L2 2 3 3.13500025939106E-10
C1 4 6 1.98891179081784E-08
C2 5 6 3.25E-12
.ENDS C0805C223K3RAC7800

.SUBCKT C0805C225K3RAC7800 1 6
*Temp = 25degC, Bias = 0VDC, Center Frequency = 1000000 Hz
*KEMET Model RLC Cerm
R1 3 4 0.00722663849592209
R2 2 5 0.639999985694885
R3 1 6 490200000
L1 1 2 1.18500001478061E-11
L2 2 3 2.25150002808316E-10
C1 4 6 1.8442635791871E-06
C2 5 6 1E-11
.ENDS C0805C225K3RAC7800

.SUBCKT C0805C475K4RAC7800 1 6
*Temp = 25degC, Bias = 0VDC, Center Frequency = 1000000 Hz
*KEMET Model RLC Cerm
R1 3 4 0.00508115440607071
R2 2 5 0.46000000834465
R3 1 6 238100000
L1 1 2 1.32499997085311E-11
L2 2 3 2.51749994462092E-10
C1 4 6 3.7970132780174E-06
C2 5 6 4.03999996185303E-12
.ENDS C0805C475K4RAC7800

.SUBCKT C1206C101KCRAC7800 1 6
*Temp = 25degC, Bias = 0VDC, Center Frequency = 1000000 Hz
*KEMET Model RLC Cerm
R1 3 4 0.375402182340622
R2 2 5 4.55999994277954
R3 1 6 99999997952
L1 1 2 3.95000004926871E-11
L2 2 3 7.50500009361055E-10
C1 4 6 9.04050723171679E-11
C2 5 6 5.99999986588955E-14
.ENDS C1206C101KCRAC7800

.SUBCKT C1206C103J1RAC7800 1 6
*Temp = 25degC, Bias = 0VDC, Center Frequency = 1000000 Hz
*KEMET Model RLC Cerm
R1 3 4 0.279654175043106
R2 2 5 8.39999961853027
R3 1 6 99999997952
L1 1 2 3.95000004926871E-11
L2 2 3 7.50500009361055E-10
C1 4 6 9.04050700967218E-09
C2 5 6 2.09999990463257E-12
.ENDS C1206C103J1RAC7800



