.SUBCKT C0805C105K5RAC7800 1 6
*Temp = 25degC, Bias = 0VDC, Center Frequency = 1000000 Hz
*KEMET Model RLC Cerm
R1 3 4 0.00934751704335213
R2 2 5 0.75
R3 1 6 1000000000
L1 1 2 1.80799999971448E-11
L2 2 3 3.43519999945752E-10
C1 4 6 9.0405075070521E-07
C2 5 6 3.25E-12
.ENDS C0805C105K5RAC7800
