*----------------------------------------------------------------------
* SPICE Model generated by Murata Manufacturing Co., Ltd.
* Copyright(C) Murata Manufacturing Co., Ltd.
* Description :0603M(0201)/C0G/33pF/50V
* Murata P/N :GRM0335C1H330JA01
* Property : C = 33[pF]
* Data Generated on Jan 10, 2017
*----------------------------------------------------------------------
* Applicable Conditions:
*   Frequency Range = 100MHz-8.5GHz
*   Temperature = 25 degC
*   DC Bias Voltage = 0V
*   Small Signal Operation
*----------------------------------------------------------------------
.SUBCKT GRM0335C1H330JA01_DC0V_25degC port1 port2
C1 port1 11 3.30e-11
L2 11 12 8.57e-11
R3 12 13 1.46e-1
L4 13 14 8.46e-12
R4 13 14 1.11e-1
C5 14 15 9.36e-12
L5 14 15 3.54e-11
R5 14 15 3.63
C6 15 port2 6.75e-13
L6 15 port2 1.18e-10
R6 15 port2 1.00e+5
R100 port1 11 1.00e+10
.ENDS GRM0335C1H330JA01_DC0V_25degC