*----------------------------------------------------------------------
* SPICE Model generated by Murata Manufacturing Co., Ltd.
* Copyright(C) Murata Manufacturing Co., Ltd.
* Description :0603M(0201)/X5R/2.2uF/10V
* Murata P/N :GRM033R61A225ME47
* Property : C = 2.2[uF]
* Data Generated on Dec 1, 2020
*----------------------------------------------------------------------
* Applicable Conditions:
*   Frequency Range = 100Hz-6GHz
*   Temperature = 25 degC
*   DC Bias Voltage = 0V
*   Small Signal Operation
*----------------------------------------------------------------------
.SUBCKT GRM033R61A225ME47_DC0V_25degC port1 port2
C1 port1 11 1.76e-6
L2 11 12 1.22e-10
R3 12 13 6.65e-3
C4 13 14 1.03e-4
R4 13 14 18.7
C5 14 15 1.19e-4
R5 14 15 1.79
C6 15 16 1.31e-4
R6 15 16 2.00e-1
C7 16 17 1.14e-4
R7 16 17 2.56e-2
C8 17 18 6.56e-5
R8 17 18 4.50e-3
L9 18 19 2.24e-11
R9 18 19 2.10e-1
L10 19 20 3.21e-11
R10 19 20 5.77e-2
L11 20 21 9.48e-11
R11 20 21 2.20e-2
C12 21 22 1.60e-5
L12 21 22 8.30e-12
R12 21 22 1.00e-3
C13 22 port2 2.64e-6
L13 22 port2 2.86e-11
R13 22 port2 2.29e-3
R100 port1 11 2.27e+7
.ENDS GRM033R61A225ME47_DC0V_25degC