*----------------------------------------------------------------------
* SPICE Model generated by Murata Manufacturing Co., Ltd.
* Copyright(C) Murata Manufacturing Co., Ltd.
* Description :0603M(0201)/X5R/0.1uF/10V
* Murata P/N :GRM033R61A104KE15
* Property : C = 0.1[uF]
* Data Generated on Aug 3, 2020
*----------------------------------------------------------------------
* Applicable Conditions:
*   Frequency Range = 100Hz-6GHz
*   Temperature = 25 degC
*   DC Bias Voltage = 0V
*   Small Signal Operation
*----------------------------------------------------------------------
.SUBCKT GRM033R61A104KE15_DC0V_25degC port1 port2
C1 port1 11 8.36e-8
L2 11 12 1.46e-10
R3 12 13 2.62e-2
C4 13 14 4.91e-6
R4 13 14 404
C5 14 15 6.63e-6
R5 14 15 57.0
C6 15 16 7.43e-6
R6 15 16 7.02
C7 16 17 6.47e-6
R7 16 17 1.11
C8 17 18 5.55e-6
R8 17 18 2.07e-1
C9 18 19 3.25e-6
R9 18 19 5.05e-2
L10 19 20 3.72e-11
R10 19 20 6.47
L11 20 21 1.62e-11
R11 20 21 1.77e-1
L12 21 22 4.71e-11
R12 21 22 7.58e-2
C13 22 port2 7.33e-8
L13 22 port2 2.88e-11
R13 22 port2 1.61e-2
R100 port1 11 5.00e+8
.ENDS GRM033R61A104KE15_DC0V_25degC