*----------------------------------------------------------------------
* SPICE Model generated by Murata Manufacturing Co., Ltd.
* Copyright(C) Murata Manufacturing Co., Ltd.
* Description :0603M(0201)/C0G/15pF/50V
* Murata P/N :GRM0335C1H150FA01
* Property : C = 15[pF]
* Data Generated on Apr 1, 2021
*----------------------------------------------------------------------
* Applicable Conditions:
*   Frequency Range = 100MHz-8.5GHz
*   Temperature = 25 degC
*   DC Bias Voltage = 0V
*   Small Signal Operation
*----------------------------------------------------------------------
.SUBCKT GRM0335C1H150FA01_DC0V_25degC port1 port2
C1 port1 11 1.50e-11
L2 11 12 1.66e-10
R3 12 13 1.78e-1
L4 13 14 1.48e-11
R4 13 14 2.88e-1
C5 14 15 1.08e-11
L5 14 15 2.93e-11
R5 14 15 4.87
C6 15 port2 4.90e-12
L6 15 port2 5.39e-11
R6 15 port2 1.00e+5
R100 port1 11 1.00e+10
.ENDS GRM0335C1H150FA01_DC0V_25degC