*----------------------------------------------------------------------
* SPICE Model generated by Murata Manufacturing Co., Ltd.
* Copyright(C) Murata Manufacturing Co., Ltd.
* Description :1005M(0402)/X5R/10uF/10V
* Murata P/N :GRM155R61A106ME11
* Property : C = 10[uF]
* Data Generated on Oct 1, 2020
*----------------------------------------------------------------------
* Applicable Conditions:
*   Frequency Range = 100Hz-6GHz
*   Temperature = 25 degC
*   DC Bias Voltage = 0V
*   Small Signal Operation
*----------------------------------------------------------------------
.SUBCKT GRM155R61A106ME11_DC0V_25degC port1 port2
C1 port1 11 7.02e-6
L2 11 12 1.39e-10
R3 12 13 4.25e-3
C4 13 14 4.26e-4
R4 13 14 3.20
C5 14 15 5.31e-4
R5 14 15 3.53e-1
C6 15 16 5.78e-4
R6 15 16 5.34e-2
C7 16 17 5.78e-4
R7 16 17 8.84e-3
C8 17 18 3.16e-4
R8 17 18 2.33e-3
L9 18 19 3.18e-11
R9 18 19 1.23e-1
L10 19 20 5.83e-11
R10 19 20 4.16e-2
L11 20 21 1.81e-10
R11 20 21 2.21e-2
C12 21 22 4.57e-6
L12 21 22 1.53e-10
R12 21 22 4.61e-3
C13 22 port2 2.74e-11
L13 22 port2 1.00e-11
R13 22 port2 2.10
R100 port1 11 5.00e+6
.ENDS GRM155R61A106ME11_DC0V_25degC