*----------------------------------------------------------------------
* SPICE Model generated by Murata Manufacturing Co., Ltd.
* Copyright(C) Murata Manufacturing Co., Ltd.
* Description :1608M(0603)/X5R/10uF/25V
* Murata P/N :GRM188R61E106MA73
* Property : C = 10[uF]
* Data Generated on Jan 8, 2019
*----------------------------------------------------------------------
* Applicable Conditions:
*   Frequency Range = 100Hz-6GHz
*   Temperature = 25 degC
*   DC Bias Voltage = 0V
*   Small Signal Operation
*----------------------------------------------------------------------
.SUBCKT GRM188R61E106MA73_DC0V_25degC port1 port2
C1 port1 11 7.18e-6
L2 11 12 1.82e-10
R3 12 13 2.94e-3
C4 13 14 2.38e-4
R4 13 14 16.8
C5 14 15 2.89e-4
R5 14 15 1.48
C6 15 16 2.60e-4
R6 15 16 1.76e-1
C7 16 17 2.09e-4
R7 16 17 2.07e-2
C8 17 18 2.35e-4
R8 17 18 2.49e-3
L9 18 19 2.40e-11
R9 18 19 1.57e-1
L10 19 20 4.45e-11
R10 19 20 3.87e-2
L11 20 21 2.97e-10
R11 20 21 1.82e-2
C12 21 22 3.04e-5
L12 21 22 4.76e-11
R12 21 22 3.13e-3
C13 22 23 1.13e-5
L13 22 23 6.46e-11
R13 22 23 4.46e-3
C14 23 port2 8.28e-12
L14 23 port2 4.40e-11
R14 23 port2 6.96
R100 port1 11 5.00e+6
.ENDS GRM188R61E106MA73_DC0V_25degC