*----------------------------------------------------------------------
* SPICE Model generated by Murata Manufacturing Co., Ltd.
* Copyright(C) Murata Manufacturing Co., Ltd.
* Description :1005M(0402)/X5R/1uF/25V
* Murata P/N :GRM155R61E105KA12
* Property : C = 1[uF]
* Data Generated on Dec 1, 2020
*----------------------------------------------------------------------
* Applicable Conditions:
*   Frequency Range = 100Hz-6GHz
*   Temperature = 25 degC
*   DC Bias Voltage = 0V
*   Small Signal Operation
*----------------------------------------------------------------------
.SUBCKT GRM155R61E105KA12_DC0V_25degC port1 port2
C1 port1 11 5.56e-7
L2 11 12 1.54e-10
R3 12 13 1.06e-2
C4 13 14 1.77e-5
R4 13 14 123
C5 14 15 1.65e-5
R5 14 15 17.2
C6 15 16 1.47e-5
R6 15 16 2.41
C7 16 17 1.49e-5
R7 16 17 3.02e-1
C8 17 18 1.15e-5
R8 17 18 5.24e-2
C9 18 19 1.38e-5
R9 18 19 9.18e-3
L10 19 20 2.05e-11
R10 19 20 2.37e-1
L11 20 21 2.19e-11
R11 20 21 6.72e-2
L12 21 22 1.20e-10
R12 21 22 3.80e-2
C13 22 23 4.54e-6
L13 22 23 1.14e-11
R13 22 23 3.85e-3
C14 23 24 8.42e-7
L14 23 24 3.21e-11
R14 23 24 5.60e-3
C15 24 port2 7.39e-12
L15 24 port2 2.47e-11
R15 24 port2 4.10
R100 port1 11 5.00e+7
.ENDS GRM155R61E105KA12_DC0V_25degC