*----------------------------------------------------------------------
* SPICE Model generated by Murata Manufacturing Co., Ltd.
* Copyright(C) Murata Manufacturing Co., Ltd.
* Description :1005M(0402)/X5R/4.7uF/10V
* Murata P/N :GRM155R61A475MEAA
* Property : C = 4.7[uF]
* Data Generated on Dec 1, 2020
*----------------------------------------------------------------------
* Applicable Conditions:
*   Frequency Range = 100Hz-6GHz
*   Temperature = 25 degC
*   DC Bias Voltage = 0V
*   Small Signal Operation
*----------------------------------------------------------------------
.SUBCKT GRM155R61A475MEAA_DC0V_25degC port1 port2
C1 port1 11 3.78e-6
L2 11 12 1.41e-10
R3 12 13 9.00e-3
C4 13 14 2.20e-4
R4 13 14 5.04
C5 14 15 3.43e-4
R5 14 15 3.93e-1
C6 15 16 4.13e-4
R6 15 16 4.07e-2
C7 16 17 3.03e-4
R7 16 17 5.25e-3
L8 17 18 4.03e-11
R8 17 18 1.98e-1
L9 18 19 4.19e-11
R9 18 19 2.80e-2
L10 19 20 1.56e-10
R10 19 20 1.88e-2
C11 20 21 1.70e-5
L11 20 21 3.08e-11
R11 20 21 1.33e-3
C12 21 22 3.47e-6
L12 21 22 5.90e-11
R12 21 22 2.82e-3
C13 22 port2 4.82e-12
L13 22 port2 3.11e-11
R13 22 port2 4.14
R100 port1 11 1.06e+7
.ENDS GRM155R61A475MEAA_DC0V_25degC