*----------------------------------------------------------------------
* SPICE Model generated by Murata Manufacturing Co., Ltd.
* Copyright(C) Murata Manufacturing Co., Ltd.
* Description :2012M(0805)/X5R/22uF/25V
* Murata P/N :GRM21BR61E226ME44
* Property : C = 22[uF]
* Data Generated on Jan 8, 2019
*----------------------------------------------------------------------
* Applicable Conditions:
*   Frequency Range = 100Hz-6GHz
*   Temperature = 25 degC
*   DC Bias Voltage = 0V
*   Small Signal Operation
*----------------------------------------------------------------------
.SUBCKT GRM21BR61E226ME44_DC0V_25degC port1 port2
C1 port1 11 1.70e-5
L2 11 12 1.60e-10
R3 12 13 2.11e-3
C4 13 14 6.67e-4
R4 13 14 7.95
C5 14 15 7.65e-4
R5 14 15 7.74e-1
C6 15 16 7.03e-4
R6 15 16 9.99e-2
C7 16 17 6.45e-4
R7 16 17 1.24e-2
C8 17 18 6.19e-4
R8 17 18 1.97e-3
L9 18 19 1.62e-11
R9 18 19 5.44e-2
L10 19 20 3.66e-11
R10 19 20 2.02e-2
L11 20 21 3.37e-10
R11 20 21 1.34e-2
C12 21 22 5.83e-5
L12 21 22 6.41e-11
R12 21 22 3.35e-3
C13 22 23 2.26e-5
L13 22 23 8.31e-11
R13 22 23 3.61e-3
C14 23 port2 4.77e-12
L14 23 port2 8.46e-11
R14 23 port2 14.7
R100 port1 11 2.27e+6
.ENDS GRM21BR61E226ME44_DC0V_25degC

*----------------------------------------------------------------------
* SPICE Model generated by Murata Manufacturing Co., Ltd.
* Copyright(C) Murata Manufacturing Co., Ltd.
* Description :0603M(0201)/X5R/1uF/6.3V
* Murata P/N :GRM033R60J105MEA2
* Property : C = 1[uF]
* Data Generated on Dec 1, 2020
*----------------------------------------------------------------------
* Applicable Conditions:
*   Frequency Range = 100Hz-6GHz
*   Temperature = 25 degC
*   DC Bias Voltage = 0V
*   Small Signal Operation
*----------------------------------------------------------------------
.SUBCKT GRM033R60J105MEA2_DC0V_25degC port1 port2
C1 port1 11 7.76e-7
L2 11 12 1.33e-10
R3 12 13 9.18e-3
C4 13 14 5.20e-5
R4 13 14 40.3
C5 14 15 4.90e-5
R5 14 15 5.17
C6 15 16 4.88e-5
R6 15 16 6.72e-1
C7 16 17 4.98e-5
R7 16 17 7.33e-2
C8 17 18 2.73e-5
R8 17 18 1.58e-2
L9 18 19 1.14e-11
R9 18 19 2.87e-1
L10 19 20 2.43e-11
R10 19 20 9.38e-2
L11 20 21 8.88e-11
R11 20 21 3.13e-2
C12 21 22 2.75e-6
L12 21 22 1.90e-11
R12 21 22 3.52e-3
C13 22 port2 1.45e-6
L13 22 port2 1.70e-11
R13 22 port2 4.44e-3
R100 port1 11 5.00e+7
.ENDS GRM033R60J105MEA2_DC0V_25degC

*----------------------------------------------------------------------
* SPICE Model generated by Murata Manufacturing Co., Ltd.
* Copyright(C) Murata Manufacturing Co., Ltd.
* Description :0603M(0201)/X5R/22000pF/6.3V
* Murata P/N :GRM033R60J223KE01
* Property : C = 22000[pF]
* Data Generated on Aug 1, 2022
*----------------------------------------------------------------------
* Applicable Conditions:
*   Frequency Range = 100Hz-6GHz
*   Temperature = 25 degC
*   DC Bias Voltage = 0V
*   Small Signal Operation
*----------------------------------------------------------------------
.SUBCKT GRM033R60J223KE01_DC0V_25degC port1 port2
C1 port1 11 2.24e-8
L2 11 12 1.84e-10
R3 12 13 3.63e-2
C4 13 14 1.31e-6
R4 13 14 2.61e+3
C5 14 15 2.76e-6
R5 14 15 177
C6 15 16 2.74e-6
R6 15 16 30.7
C7 16 17 4.32e-6
R7 16 17 3.07
C8 17 18 3.20e-6
R8 17 18 7.65e-1
C9 18 19 2.70e-6
R9 18 19 1.24e-1
C10 19 20 2.99e-6
R10 19 20 3.30e-2
C11 20 21 2.21e-6
R11 20 21 1.11e-2
L12 21 22 4.95e-11
R12 21 22 1.41e-1
C13 22 23 2.75e-8
L13 22 23 2.57e-11
R13 22 23 3.44e-2
C14 23 port2 1.06e-12
L14 23 port2 2.55e-11
R14 23 port2 2.22
R100 port1 11 2.00e+9
.ENDS GRM033R60J223KE01_DC0V_25degC

*----------------------------------------------------------------------
* SPICE Model generated by Murata Manufacturing Co., Ltd.
* Copyright(C) Murata Manufacturing Co., Ltd.
* Description :0603M(0201)/X5R/0.1uF/10V
* Murata P/N :GRM033R61A104KE15
* Property : C = 0.1[uF]
* Data Generated on Aug 3, 2020
*----------------------------------------------------------------------
* Applicable Conditions:
*   Frequency Range = 100Hz-6GHz
*   Temperature = 25 degC
*   DC Bias Voltage = 0V
*   Small Signal Operation
*----------------------------------------------------------------------
.SUBCKT GRM033R61A104KE15_DC0V_25degC port1 port2
C1 port1 11 8.36e-8
L2 11 12 1.46e-10
R3 12 13 2.62e-2
C4 13 14 4.91e-6
R4 13 14 404
C5 14 15 6.63e-6
R5 14 15 57.0
C6 15 16 7.43e-6
R6 15 16 7.02
C7 16 17 6.47e-6
R7 16 17 1.11
C8 17 18 5.55e-6
R8 17 18 2.07e-1
C9 18 19 3.25e-6
R9 18 19 5.05e-2
L10 19 20 3.72e-11
R10 19 20 6.47
L11 20 21 1.62e-11
R11 20 21 1.77e-1
L12 21 22 4.71e-11
R12 21 22 7.58e-2
C13 22 port2 7.33e-8
L13 22 port2 2.88e-11
R13 22 port2 1.61e-2
R100 port1 11 5.00e+8
.ENDS GRM033R61A104KE15_DC0V_25degC

*----------------------------------------------------------------------
* SPICE Model generated by Murata Manufacturing Co., Ltd.
* Copyright(C) Murata Manufacturing Co., Ltd.
* Description :0603M(0201)/X5R/22000pF/10V
* Murata P/N :GRM033R61A223KE84
* Property : C = 22000[pF]
* Data Generated on Aug 1, 2022
*----------------------------------------------------------------------
* Applicable Conditions:
*   Frequency Range = 100Hz-6GHz
*   Temperature = 25 degC
*   DC Bias Voltage = 0V
*   Small Signal Operation
*----------------------------------------------------------------------
.SUBCKT GRM033R61A223KE84_DC0V_25degC port1 port2
C1 port1 11 2.24e-8
L2 11 12 1.84e-10
R3 12 13 3.63e-2
C4 13 14 1.31e-6
R4 13 14 2.61e+3
C5 14 15 2.76e-6
R5 14 15 177
C6 15 16 2.74e-6
R6 15 16 30.7
C7 16 17 4.32e-6
R7 16 17 3.07
C8 17 18 3.20e-6
R8 17 18 7.65e-1
C9 18 19 2.70e-6
R9 18 19 1.24e-1
C10 19 20 2.99e-6
R10 19 20 3.30e-2
C11 20 21 2.21e-6
R11 20 21 1.11e-2
L12 21 22 4.95e-11
R12 21 22 1.41e-1
C13 22 23 2.75e-8
L13 22 23 2.57e-11
R13 22 23 3.44e-2
C14 23 port2 1.06e-12
L14 23 port2 2.55e-11
R14 23 port2 2.22
R100 port1 11 2.00e+9
.ENDS GRM033R61A223KE84_DC0V_25degC

*----------------------------------------------------------------------
* SPICE Model generated by Murata Manufacturing Co., Ltd.
* Copyright(C) Murata Manufacturing Co., Ltd.
* Description :0603M(0201)/X5R/0.22uF/10V
* Murata P/N :GRM033R61A224KE90
* Property : C = 0.22[uF]
* Data Generated on Nov 6, 2018
*----------------------------------------------------------------------
* Applicable Conditions:
*   Frequency Range = 100Hz-6GHz
*   Temperature = 25 degC
*   DC Bias Voltage = 0V
*   Small Signal Operation
*----------------------------------------------------------------------
.SUBCKT GRM033R61A224KE90_DC0V_25degC port1 port2
C1 port1 11 2.07e-7
L2 11 12 1.36e-10
R3 12 13 1.66e-2
C4 13 14 1.78e-5
R4 13 14 165
C5 14 15 1.88e-5
R5 14 15 36.9
C6 15 16 2.52e-5
R6 15 16 3.61
C7 16 17 2.20e-5
R7 16 17 5.99e-1
C8 17 18 1.72e-5
R8 17 18 8.70e-2
C9 18 19 1.10e-5
R9 18 19 1.87e-2
C10 19 20 1.36e-5
R10 19 20 2.42e-3
L11 20 21 1.91e-11
R11 20 21 1.10e-1
L12 21 22 6.08e-11
R12 21 22 5.08e-2
C13 22 23 1.49e-7
L13 22 23 4.57e-11
R13 22 23 1.24e-2
C14 23 port2 8.11e-12
L14 23 port2 2.92e-11
R14 23 port2 2.91
R100 port1 11 2.27e+8
.ENDS GRM033R61A224KE90_DC0V_25degC

*----------------------------------------------------------------------
* SPICE Model generated by Murata Manufacturing Co., Ltd.
* Copyright(C) Murata Manufacturing Co., Ltd.
* Description :0603M(0201)/X5R/2.2uF/10V
* Murata P/N :GRM033R61A225ME47
* Property : C = 2.2[uF]
* Data Generated on Dec 1, 2020
*----------------------------------------------------------------------
* Applicable Conditions:
*   Frequency Range = 100Hz-6GHz
*   Temperature = 25 degC
*   DC Bias Voltage = 0V
*   Small Signal Operation
*----------------------------------------------------------------------
.SUBCKT GRM033R61A225ME47_DC0V_25degC port1 port2
C1 port1 11 1.76e-6
L2 11 12 1.22e-10
R3 12 13 6.65e-3
C4 13 14 1.03e-4
R4 13 14 18.7
C5 14 15 1.19e-4
R5 14 15 1.79
C6 15 16 1.31e-4
R6 15 16 2.00e-1
C7 16 17 1.14e-4
R7 16 17 2.56e-2
C8 17 18 6.56e-5
R8 17 18 4.50e-3
L9 18 19 2.24e-11
R9 18 19 2.10e-1
L10 19 20 3.21e-11
R10 19 20 5.77e-2
L11 20 21 9.48e-11
R11 20 21 2.20e-2
C12 21 22 1.60e-5
L12 21 22 8.30e-12
R12 21 22 1.00e-3
C13 22 port2 2.64e-6
L13 22 port2 2.86e-11
R13 22 port2 2.29e-3
R100 port1 11 2.27e+7
.ENDS GRM033R61A225ME47_DC0V_25degC

*----------------------------------------------------------------------
* SPICE Model generated by Murata Manufacturing Co., Ltd.
* Copyright(C) Murata Manufacturing Co., Ltd.
* Description :0603M(0201)/X5R/10000pF/16V
* Murata P/N :GRM033R61C103KA12
* Property : C = 10000[pF]
* Data Generated on Aug 1, 2022
*----------------------------------------------------------------------
* Applicable Conditions:
*   Frequency Range = 100Hz-6GHz
*   Temperature = 25 degC
*   DC Bias Voltage = 0V
*   Small Signal Operation
*----------------------------------------------------------------------
.SUBCKT GRM033R61C103KA12_DC0V_25degC port1 port2
C1 port1 11 9.72e-9
L2 11 12 2.06e-10
R3 12 13 5.50e-2
C4 13 14 9.31e-7
R4 13 14 3.97e+3
C5 14 15 1.60e-6
R5 14 15 362
C6 15 16 1.31e-6
R6 15 16 64.3
C7 16 17 1.22e-6
R7 16 17 8.68
C8 17 18 8.77e-7
R8 17 18 1.22
C9 18 19 6.54e-7
R9 18 19 2.66e-1
C10 19 20 6.70e-7
R10 19 20 3.86e-2
L11 20 21 4.02e-11
R11 20 21 1.62e-1
L12 21 22 5.07e-12
R12 21 22 5.51e-2
C13 22 23 1.03e-8
L13 22 23 2.05e-11
R13 22 23 4.27e-2
C14 23 port2 2.36e-11
L14 23 port2 1.34e-11
R14 23 port2 1.68
R100 port1 11 1.00e+10
.ENDS GRM033R61C103KA12_DC0V_25degC

*----------------------------------------------------------------------
* SPICE Model generated by Murata Manufacturing Co., Ltd.
* Copyright(C) Murata Manufacturing Co., Ltd.
* Description :0603M(0201)/X5R/1000pF/25V
* Murata P/N :GRM033R61E102KA01
* Property : C = 1000[pF]
* Data Generated on Aug 1, 2022
*----------------------------------------------------------------------
* Applicable Conditions:
*   Frequency Range = 100Hz-6GHz
*   Temperature = 25 degC
*   DC Bias Voltage = 0V
*   Small Signal Operation
*----------------------------------------------------------------------
.SUBCKT GRM033R61E102KA01_DC0V_25degC port1 port2
C1 port1 11 1.02e-9
L2 11 12 1.99e-10
R3 12 13 2.18e-1
C4 13 14 7.35e-8
R4 13 14 3.46e+4
C5 14 15 1.32e-7
R5 14 15 869
C6 15 16 1.29e-7
R6 15 16 69.1
C7 16 17 9.72e-8
R7 16 17 8.32
C8 17 18 1.90e-7
R8 17 18 1.26
C9 18 19 7.40e-8
R9 18 19 6.56e-1
C10 19 20 2.13e-8
R10 19 20 2.92e-1
C11 20 21 2.82e-10
L11 20 21 2.57e-11
R11 20 21 2.26e-1
C12 21 port2 5.00e-12
L12 21 port2 5.80e-11
R12 21 port2 8.56
R100 port1 11 1.00e+10
.ENDS GRM033R61E102KA01_DC0V_25degC

*----------------------------------------------------------------------
* SPICE Model generated by Murata Manufacturing Co., Ltd.
* Copyright(C) Murata Manufacturing Co., Ltd.
* Description :0603M(0201)/X5R/4700pF/25V
* Murata P/N :GRM033R61E472KA12
* Property : C = 4700[pF]
* Data Generated on Nov 6, 2018
*----------------------------------------------------------------------
* Applicable Conditions:
*   Frequency Range = 100Hz-6GHz
*   Temperature = 25 degC
*   DC Bias Voltage = 0V
*   Small Signal Operation
*----------------------------------------------------------------------
.SUBCKT GRM033R61E472KA12_DC0V_25degC port1 port2
C1 port1 11 4.53e-9
L2 11 12 1.44e-10
R3 12 13 1.21e-1
C4 13 14 4.21e-7
R4 13 14 4.85e+3
C5 14 15 6.51e-7
R5 14 15 433
C6 15 16 5.38e-7
R6 15 16 62.5
C7 16 17 4.28e-7
R7 16 17 7.52
C8 17 18 3.02e-7
R8 17 18 1.14
C9 18 19 1.76e-7
R9 18 19 1.73e-1
L10 19 20 1.63e-11
R10 19 20 1.93e-1
C11 20 21 1.22e-9
L11 20 21 3.01e-11
R11 20 21 9.40e-2
C12 21 port2 2.11e-12
L12 21 port2 8.95e-11
R12 21 port2 25.1
R100 port1 11 1.00e+10
.ENDS GRM033R61E472KA12_DC0V_25degC

*----------------------------------------------------------------------
* SPICE Model generated by Murata Manufacturing Co., Ltd.
* Copyright(C) Murata Manufacturing Co., Ltd.
* Description :1005M(0402)/X5R/10uF/6.3V
* Murata P/N :GRM155R60J106ME15
* Property : C = 10[uF]
* Data Generated on Dec 2, 2019
*----------------------------------------------------------------------
* Applicable Conditions:
*   Frequency Range = 100Hz-6GHz
*   Temperature = 25 degC
*   DC Bias Voltage = 0V
*   Small Signal Operation
*----------------------------------------------------------------------
.SUBCKT GRM155R60J106ME15_DC0V_25degC port1 port2
C1 port1 11 7.77e-6
L2 11 12 1.24e-10
R3 12 13 4.50e-3
C4 13 14 4.75e-4
R4 13 14 8.46
C5 14 15 5.84e-4
R5 14 15 7.86e-1
C6 15 16 5.95e-4
R6 15 16 9.76e-2
C7 16 17 5.45e-4
R7 16 17 1.17e-2
C8 17 18 4.68e-4
R8 17 18 1.37e-3
L9 18 19 3.07e-11
R9 18 19 1.45e-1
L10 19 20 6.42e-11
R10 19 20 3.25e-2
L11 20 21 2.40e-10
R11 20 21 1.46e-2
C12 21 22 1.43e-5
L12 21 22 6.18e-11
R12 21 22 1.50e-3
C13 22 23 7.03e-5
L13 22 23 7.75e-12
R13 22 23 8.08e-4
C14 23 port2 7.75e-12
L14 23 port2 3.49e-11
R14 23 port2 11.2
R100 port1 11 5.00e+6
.ENDS GRM155R60J106ME15_DC0V_25degC

*----------------------------------------------------------------------
* SPICE Model generated by Murata Manufacturing Co., Ltd.
* Copyright(C) Murata Manufacturing Co., Ltd.
* Description :1005M(0402)/X5R/10uF/10V
* Murata P/N :GRM155R61A106ME11
* Property : C = 10[uF]
* Data Generated on Oct 1, 2020
*----------------------------------------------------------------------
* Applicable Conditions:
*   Frequency Range = 100Hz-6GHz
*   Temperature = 25 degC
*   DC Bias Voltage = 0V
*   Small Signal Operation
*----------------------------------------------------------------------
.SUBCKT GRM155R61A106ME11_DC0V_25degC port1 port2
C1 port1 11 7.02e-6
L2 11 12 1.39e-10
R3 12 13 4.25e-3
C4 13 14 4.26e-4
R4 13 14 3.20
C5 14 15 5.31e-4
R5 14 15 3.53e-1
C6 15 16 5.78e-4
R6 15 16 5.34e-2
C7 16 17 5.78e-4
R7 16 17 8.84e-3
C8 17 18 3.16e-4
R8 17 18 2.33e-3
L9 18 19 3.18e-11
R9 18 19 1.23e-1
L10 19 20 5.83e-11
R10 19 20 4.16e-2
L11 20 21 1.81e-10
R11 20 21 2.21e-2
C12 21 22 4.57e-6
L12 21 22 1.53e-10
R12 21 22 4.61e-3
C13 22 port2 2.74e-11
L13 22 port2 1.00e-11
R13 22 port2 2.10
R100 port1 11 5.00e+6
.ENDS GRM155R61A106ME11_DC0V_25degC

* SPICE Model generated by Murata Manufacturing Co., Ltd.
* Copyright(C) Murata Manufacturing Co., Ltd.
* Description :1005M(0402)/X5R/4.7uF/10V
* Murata P/N :GRM155R61A475MEAA
* Property : C = 4.7[uF]
* Data Generated on Dec 1, 2020
*----------------------------------------------------------------------
* Applicable Conditions:
*   Frequency Range = 100Hz-6GHz
*   Temperature = 25 degC
*   DC Bias Voltage = 0V
*   Small Signal Operation
*----------------------------------------------------------------------
.SUBCKT GRM155R61A475MEAA_DC0V_25degC port1 port2
C1 port1 11 3.78e-6
L2 11 12 1.41e-10
R3 12 13 9.00e-3
C4 13 14 2.20e-4
R4 13 14 5.04
C5 14 15 3.43e-4
R5 14 15 3.93e-1
C6 15 16 4.13e-4
R6 15 16 4.07e-2
C7 16 17 3.03e-4
R7 16 17 5.25e-3
L8 17 18 4.03e-11
R8 17 18 1.98e-1
L9 18 19 4.19e-11
R9 18 19 2.80e-2
L10 19 20 1.56e-10
R10 19 20 1.88e-2
C11 20 21 1.70e-5
L11 20 21 3.08e-11
R11 20 21 1.33e-3
C12 21 22 3.47e-6
L12 21 22 5.90e-11
R12 21 22 2.82e-3
C13 22 port2 4.82e-12
L13 22 port2 3.11e-11
R13 22 port2 4.14
R100 port1 11 1.06e+7
.ENDS GRM155R61A475MEAA_DC0V_25degC

*----------------------------------------------------------------------
* SPICE Model generated by Murata Manufacturing Co., Ltd.
* Copyright(C) Murata Manufacturing Co., Ltd.
* Description :1005M(0402)/X5R/1uF/25V
* Murata P/N :GRM155R61E105KA12
* Property : C = 1[uF]
* Data Generated on Dec 1, 2020
*----------------------------------------------------------------------
* Applicable Conditions:
*   Frequency Range = 100Hz-6GHz
*   Temperature = 25 degC
*   DC Bias Voltage = 0V
*   Small Signal Operation
*----------------------------------------------------------------------
.SUBCKT GRM155R61E105KA12_DC0V_25degC port1 port2
C1 port1 11 5.56e-7
L2 11 12 1.54e-10
R3 12 13 1.06e-2
C4 13 14 1.77e-5
R4 13 14 123
C5 14 15 1.65e-5
R5 14 15 17.2
C6 15 16 1.47e-5
R6 15 16 2.41
C7 16 17 1.49e-5
R7 16 17 3.02e-1
C8 17 18 1.15e-5
R8 17 18 5.24e-2
C9 18 19 1.38e-5
R9 18 19 9.18e-3
L10 19 20 2.05e-11
R10 19 20 2.37e-1
L11 20 21 2.19e-11
R11 20 21 6.72e-2
L12 21 22 1.20e-10
R12 21 22 3.80e-2
C13 22 23 4.54e-6
L13 22 23 1.14e-11
R13 22 23 3.85e-3
C14 23 24 8.42e-7
L14 23 24 3.21e-11
R14 23 24 5.60e-3
C15 24 port2 7.39e-12
L15 24 port2 2.47e-11
R15 24 port2 4.10
R100 port1 11 5.00e+7
.ENDS GRM155R61E105KA12_DC0V_25degC

*----------------------------------------------------------------------
* SPICE Model generated by Murata Manufacturing Co., Ltd.
* Copyright(C) Murata Manufacturing Co., Ltd.
* Description :1005M(0402)/X7R/0.1uF/25V
* Murata P/N :GRM155R71E104KE14
* Property : C = 0.1[uF]
* Data Generated on Feb 1, 2022
*----------------------------------------------------------------------
* Applicable Conditions:
*   Frequency Range = 100Hz-6GHz
*   Temperature = 25 degC
*   DC Bias Voltage = 0V
*   Small Signal Operation
*----------------------------------------------------------------------
.SUBCKT GRM155R71E104KE14_DC0V_25degC port1 port2
C1 port1 11 9.30e-8
L2 11 12 1.17e-10
R3 12 13 1.44e-2
C4 13 14 1.25e-5
R4 13 14 304
C5 14 15 1.65e-5
R5 14 15 43.9
C6 15 16 1.41e-5
R6 15 16 7.46
C7 16 17 1.28e-5
R7 16 17 1.30
C8 17 18 1.03e-5
R8 17 18 1.98e-1
C9 18 19 7.71e-6
R9 18 19 3.89e-2
C10 19 20 9.53e-6
R10 19 20 7.15e-3
L11 20 21 1.30e-11
R11 20 21 8.90e-2
L12 21 22 9.65e-11
R12 21 22 6.74e-2
C13 22 23 6.50e-7
L13 22 23 1.23e-11
R13 22 23 1.12e-2
C14 23 24 1.85e-7
L14 23 24 2.10e-11
R14 23 24 2.12e-2
C15 24 port2 2.31e-12
L15 24 port2 8.12e-11
R15 24 port2 19.4
R100 port1 11 5.00e+8
.ENDS GRM155R71E104KE14_DC0V_25degC

*----------------------------------------------------------------------
* SPICE Model generated by Murata Manufacturing Co., Ltd.
* Copyright(C) Murata Manufacturing Co., Ltd.
* Description :1608M(0603)/X5R/22uF/6.3V
* Murata P/N :GRM188R60J226MEA0
* Property : C = 22[uF]
* Data Generated on Jun 1, 2021
*----------------------------------------------------------------------
* Applicable Conditions:
*   Frequency Range = 100Hz-6GHz
*   Temperature = 25 degC
*   DC Bias Voltage = 0V
*   Small Signal Operation
*----------------------------------------------------------------------
.SUBCKT GRM188R60J226MEA0_DC0V_25degC port1 port2
C1 port1 11 1.60e-5
L2 11 12 1.80e-10
R3 12 13 2.72e-3
C4 13 14 1.11e-3
R4 13 14 4.35
C5 14 15 1.33e-3
R5 14 15 5.23e-1
C6 15 16 1.04e-3
R6 15 16 8.80e-2
C7 16 17 1.25e-3
R7 16 17 1.07e-2
C8 17 18 9.81e-4
R8 17 18 1.93e-3
L9 18 19 2.75e-11
R9 18 19 8.50e-2
L10 19 20 6.17e-11
R10 19 20 2.07e-2
L11 20 21 3.13e-10
R11 20 21 1.12e-2
C12 21 22 7.61e-5
L12 21 22 5.07e-11
R12 21 22 1.87e-3
C13 22 23 2.76e-5
L13 22 23 6.98e-11
R13 22 23 2.79e-3
C14 23 24 2.58e-11
L14 23 24 2.60e-11
R14 23 24 1.80
C15 24 port2 2.12e-11
L15 24 port2 1.40e-11
R15 24 port2 2.08
R100 port1 11 2.27e+6
.ENDS GRM188R60J226MEA0_DC0V_25degC

*----------------------------------------------------------------------
* SPICE Model generated by Murata Manufacturing Co., Ltd.
* Copyright(C) Murata Manufacturing Co., Ltd.
* Description :1608M(0603)/X5R/10uF/25V
* Murata P/N :GRM188R61E106MA73
* Property : C = 10[uF]
* Data Generated on Jan 8, 2019
*----------------------------------------------------------------------
* Applicable Conditions:
*   Frequency Range = 100Hz-6GHz
*   Temperature = 25 degC
*   DC Bias Voltage = 0V
*   Small Signal Operation
*----------------------------------------------------------------------
.SUBCKT GRM188R61E106MA73_DC0V_25degC port1 port2
C1 port1 11 7.18e-6
L2 11 12 1.82e-10
R3 12 13 2.94e-3
C4 13 14 2.38e-4
R4 13 14 16.8
C5 14 15 2.89e-4
R5 14 15 1.48
C6 15 16 2.60e-4
R6 15 16 1.76e-1
C7 16 17 2.09e-4
R7 16 17 2.07e-2
C8 17 18 2.35e-4
R8 17 18 2.49e-3
L9 18 19 2.40e-11
R9 18 19 1.57e-1
L10 19 20 4.45e-11
R10 19 20 3.87e-2
L11 20 21 2.97e-10
R11 20 21 1.82e-2
C12 21 22 3.04e-5
L12 21 22 4.76e-11
R12 21 22 3.13e-3
C13 22 23 1.13e-5
L13 22 23 6.46e-11
R13 22 23 4.46e-3
C14 23 port2 8.28e-12
L14 23 port2 4.40e-11
R14 23 port2 6.96
R100 port1 11 5.00e+6
.ENDS GRM188R61E106MA73_DC0V_25degC

*----------------------------------------------------------------------
* SPICE Model generated by Murata Manufacturing Co., Ltd.
* Copyright(C) Murata Manufacturing Co., Ltd.
* Description :0603M(0201)/C0G/100pF/25V
* Murata P/N :GRM0335C1E101JA01
* Property : C = 100[pF]
* Data Generated on Jan 10, 2017
*----------------------------------------------------------------------
* Applicable Conditions:
*   Frequency Range = 100MHz-8.5GHz
*   Temperature = 25 degC
*   DC Bias Voltage = 0V
*   Small Signal Operation
*----------------------------------------------------------------------
.SUBCKT GRM0335C1E101JA01_DC0V_25degC port1 port2
C1 port1 11 10.0e-11
L2 11 12 1.82e-10
R3 12 13 1.11e-1
L4 13 14 1.42e-11
R4 13 14 8.01e-2
C5 14 15 8.18e-10
L5 14 15 5.66e-12
R5 14 15 2.81e-1
C6 15 16 1.93e-10
L6 15 16 1.09e-11
R6 15 16 8.44e-1
C7 16 17 1.29e-11
L7 16 17 3.09e-11
R7 16 17 2.89
C8 17 port2 7.88e-12
L8 17 port2 3.35e-11
R8 17 port2 1.00e+5
R100 port1 11 1.00e+10
.ENDS GRM0335C1E101JA01_DC0V_25degC

*----------------------------------------------------------------------
* SPICE Model generated by Murata Manufacturing Co., Ltd.
* Copyright(C) Murata Manufacturing Co., Ltd.
* Description :0603M(0201)/C0G/12pF/25V
* Murata P/N :GRM0335C1E120JA01
* Property : C = 12[pF]
* Data Generated on Jan 10, 2017
*----------------------------------------------------------------------
* Applicable Conditions:
*   Frequency Range = 100MHz-8.5GHz
*   Temperature = 25 degC
*   DC Bias Voltage = 0V
*   Small Signal Operation
*----------------------------------------------------------------------
.SUBCKT GRM0335C1E120JA01_DC0V_25degC port1 port2
C1 port1 11 1.20e-11
L2 11 12 1.97e-10
R3 12 13 1.88e-1
L4 13 14 2.04e-11
R4 13 14 5.14e-1
C5 14 15 3.25e-11
L5 14 15 9.75e-12
R5 14 15 1.15
C6 15 port2 5.48e-12
L6 15 port2 3.75e-11
R6 15 port2 1.00e+5
R100 port1 11 1.00e+10
.ENDS GRM0335C1E120JA01_DC0V_25degC

*----------------------------------------------------------------------
* SPICE Model generated by Murata Manufacturing Co., Ltd.
* Copyright(C) Murata Manufacturing Co., Ltd.
* Description :0603M(0201)/C0G/47pF/25V
* Murata P/N :GRM0335C1E470JA01
* Property : C = 47[pF]
* Data Generated on Jan 10, 2017
*----------------------------------------------------------------------
* Applicable Conditions:
*   Frequency Range = 100MHz-8.5GHz
*   Temperature = 25 degC
*   DC Bias Voltage = 0V
*   Small Signal Operation
*----------------------------------------------------------------------
.SUBCKT GRM0335C1E470JA01_DC0V_25degC port1 port2
C1 port1 11 4.70e-11
L2 11 12 1.66e-10
R3 12 13 1.26e-1
L4 13 14 1.31e-11
R4 13 14 1.65e-1
C5 14 15 5.81e-10
L5 14 15 3.32e-12
R5 14 15 2.62e-1
C6 15 16 9.57e-11
L6 15 16 9.24e-12
R6 15 16 1.10
C7 16 17 1.69e-11
L7 16 17 1.94e-11
R7 16 17 2.53
C8 17 port2 4.90e-12
L8 17 port2 3.18e-11
R8 17 port2 1.00e+5
R100 port1 11 1.00e+10
.ENDS GRM0335C1E470JA01_DC0V_25degC

*----------------------------------------------------------------------
* SPICE Model generated by Murata Manufacturing Co., Ltd.
* Copyright(C) Murata Manufacturing Co., Ltd.
* Description :0603M(0201)/C0G/15pF/50V
* Murata P/N :GRM0335C1H150FA01
* Property : C = 15[pF]
* Data Generated on Apr 1, 2021
*----------------------------------------------------------------------
* Applicable Conditions:
*   Frequency Range = 100MHz-8.5GHz
*   Temperature = 25 degC
*   DC Bias Voltage = 0V
*   Small Signal Operation
*----------------------------------------------------------------------
.SUBCKT GRM0335C1H150FA01_DC0V_25degC port1 port2
C1 port1 11 1.50e-11
L2 11 12 1.66e-10
R3 12 13 1.78e-1
L4 13 14 1.48e-11
R4 13 14 2.88e-1
C5 14 15 1.08e-11
L5 14 15 2.93e-11
R5 14 15 4.87
C6 15 port2 4.90e-12
L6 15 port2 5.39e-11
R6 15 port2 1.00e+5
R100 port1 11 1.00e+10
.ENDS GRM0335C1H150FA01_DC0V_25degC

*----------------------------------------------------------------------
* SPICE Model generated by Murata Manufacturing Co., Ltd.
* Copyright(C) Murata Manufacturing Co., Ltd.
* Description :0603M(0201)/C0G/22pF/50V
* Murata P/N :GRM0335C1H220GA01
* Property : C = 22[pF]
* Data Generated on Jan 10, 2017
*----------------------------------------------------------------------
* Applicable Conditions:
*   Frequency Range = 100MHz-8.5GHz
*   Temperature = 25 degC
*   DC Bias Voltage = 0V
*   Small Signal Operation
*----------------------------------------------------------------------
.SUBCKT GRM0335C1H220GA01_DC0V_25degC port1 port2
C1 port1 11 2.20e-11
L2 11 12 2.00e-10
R3 12 13 1.48e-1
L4 13 14 1.54e-11
R4 13 14 2.91e-1
C5 14 port2 1.14e-11
L5 14 port2 3.02e-11
R5 14 port2 4.56
R100 port1 11 1.00e+10
.ENDS GRM0335C1H220GA01_DC0V_25degC

*----------------------------------------------------------------------
* SPICE Model generated by Murata Manufacturing Co., Ltd.
* Copyright(C) Murata Manufacturing Co., Ltd.
* Description :0603M(0201)/C0G/220pF/50V
* Murata P/N :GRM0335C1H221JA01
* Property : C = 220[pF]
* Data Generated on Jan 10, 2017
*----------------------------------------------------------------------
* Applicable Conditions:
*   Frequency Range = 100MHz-8.5GHz
*   Temperature = 25 degC
*   DC Bias Voltage = 0V
*   Small Signal Operation
*----------------------------------------------------------------------
.SUBCKT GRM0335C1H221JA01_DC0V_25degC port1 port2
C1 port1 11 2.20e-10
L2 11 12 1.81e-10
R3 12 13 7.29e-2
L4 13 14 3.30e-11
R4 13 14 6.97e-1
C5 14 15 2.42e-9
L5 14 15 4.73e-12
R5 14 15 2.24e-1
C6 15 16 4.53e-10
L6 15 16 1.18e-11
R6 15 16 4.96e-1
C7 16 port2 1.44e-10
L7 16 port2 2.06e-12
R7 16 port2 3.58e-1
R100 port1 11 1.00e+10
.ENDS GRM0335C1H221JA01_DC0V_25degC

*----------------------------------------------------------------------
* SPICE Model generated by Murata Manufacturing Co., Ltd.
* Copyright(C) Murata Manufacturing Co., Ltd.
* Description :0603M(0201)/C0G/33pF/50V
* Murata P/N :GRM0335C1H330JA01
* Property : C = 33[pF]
* Data Generated on Jan 10, 2017
*----------------------------------------------------------------------
* Applicable Conditions:
*   Frequency Range = 100MHz-8.5GHz
*   Temperature = 25 degC
*   DC Bias Voltage = 0V
*   Small Signal Operation
*----------------------------------------------------------------------
.SUBCKT GRM0335C1H330JA01_DC0V_25degC port1 port2
C1 port1 11 3.30e-11
L2 11 12 8.57e-11
R3 12 13 1.46e-1
L4 13 14 8.46e-12
R4 13 14 1.11e-1
C5 14 15 9.36e-12
L5 14 15 3.54e-11
R5 14 15 3.63
C6 15 port2 6.75e-13
L6 15 port2 1.18e-10
R6 15 port2 1.00e+5
R100 port1 11 1.00e+10
.ENDS GRM0335C1H330JA01_DC0V_25degC

