*----------------------------------------------------------------------
* SPICE Model generated by Murata Manufacturing Co., Ltd.
* Copyright(C) Murata Manufacturing Co., Ltd.
* Description :0603M(0201)/C0G/22pF/50V
* Murata P/N :GRM0335C1H220GA01
* Property : C = 22[pF]
* Data Generated on Jan 10, 2017
*----------------------------------------------------------------------
* Applicable Conditions:
*   Frequency Range = 100MHz-8.5GHz
*   Temperature = 25 degC
*   DC Bias Voltage = 0V
*   Small Signal Operation
*----------------------------------------------------------------------
.SUBCKT GRM0335C1H220GA01_DC0V_25degC port1 port2
C1 port1 11 2.20e-11
L2 11 12 2.00e-10
R3 12 13 1.48e-1
L4 13 14 1.54e-11
R4 13 14 2.91e-1
C5 14 port2 1.14e-11
L5 14 port2 3.02e-11
R5 14 port2 4.56
R100 port1 11 1.00e+10
.ENDS GRM0335C1H220GA01_DC0V_25degC