*----------------------------------------------------------------------
* SPICE Model generated by Murata Manufacturing Co., Ltd.
* Copyright(C) Murata Manufacturing Co., Ltd.
* Description :0603M(0201)/C0G/220pF/50V
* Murata P/N :GRM0335C1H221JA01
* Property : C = 220[pF]
* Data Generated on Jan 10, 2017
*----------------------------------------------------------------------
* Applicable Conditions:
*   Frequency Range = 100MHz-8.5GHz
*   Temperature = 25 degC
*   DC Bias Voltage = 0V
*   Small Signal Operation
*----------------------------------------------------------------------
.SUBCKT GRM0335C1H221JA01_DC0V_25degC port1 port2
C1 port1 11 2.20e-10
L2 11 12 1.81e-10
R3 12 13 7.29e-2
L4 13 14 3.30e-11
R4 13 14 6.97e-1
C5 14 15 2.42e-9
L5 14 15 4.73e-12
R5 14 15 2.24e-1
C6 15 16 4.53e-10
L6 15 16 1.18e-11
R6 15 16 4.96e-1
C7 16 port2 1.44e-10
L7 16 port2 2.06e-12
R7 16 port2 3.58e-1
R100 port1 11 1.00e+10
.ENDS GRM0335C1H221JA01_DC0V_25degC