*----------------------------------------------------------------------
* SPICE Model generated by Murata Manufacturing Co., Ltd.
* Copyright(C) Murata Manufacturing Co., Ltd.
* Description :1608M(0603)/X5R/22uF/6.3V
* Murata P/N :GRM188R60J226MEA0
* Property : C = 22[uF]
* Data Generated on Jun 1, 2021
*----------------------------------------------------------------------
* Applicable Conditions:
*   Frequency Range = 100Hz-6GHz
*   Temperature = 25 degC
*   DC Bias Voltage = 0V
*   Small Signal Operation
*----------------------------------------------------------------------
.SUBCKT GRM188R60J226MEA0_DC0V_25degC port1 port2
C1 port1 11 1.60e-5
L2 11 12 1.80e-10
R3 12 13 2.72e-3
C4 13 14 1.11e-3
R4 13 14 4.35
C5 14 15 1.33e-3
R5 14 15 5.23e-1
C6 15 16 1.04e-3
R6 15 16 8.80e-2
C7 16 17 1.25e-3
R7 16 17 1.07e-2
C8 17 18 9.81e-4
R8 17 18 1.93e-3
L9 18 19 2.75e-11
R9 18 19 8.50e-2
L10 19 20 6.17e-11
R10 19 20 2.07e-2
L11 20 21 3.13e-10
R11 20 21 1.12e-2
C12 21 22 7.61e-5
L12 21 22 5.07e-11
R12 21 22 1.87e-3
C13 22 23 2.76e-5
L13 22 23 6.98e-11
R13 22 23 2.79e-3
C14 23 24 2.58e-11
L14 23 24 2.60e-11
R14 23 24 1.80
C15 24 port2 2.12e-11
L15 24 port2 1.40e-11
R15 24 port2 2.08
R100 port1 11 2.27e+6
.ENDS GRM188R60J226MEA0_DC0V_25degC