*----------------------------------------------------------------------
* SPICE Model generated by Murata Manufacturing Co., Ltd.
* Copyright(C) Murata Manufacturing Co., Ltd.
* Description :0603M(0201)/X5R/4700pF/25V
* Murata P/N :GRM033R61E472KA12
* Property : C = 4700[pF]
* Data Generated on Nov 6, 2018
*----------------------------------------------------------------------
* Applicable Conditions:
*   Frequency Range = 100Hz-6GHz
*   Temperature = 25 degC
*   DC Bias Voltage = 0V
*   Small Signal Operation
*----------------------------------------------------------------------
.SUBCKT GRM033R61E472KA12_DC0V_25degC port1 port2
C1 port1 11 4.53e-9
L2 11 12 1.44e-10
R3 12 13 1.21e-1
C4 13 14 4.21e-7
R4 13 14 4.85e+3
C5 14 15 6.51e-7
R5 14 15 433
C6 15 16 5.38e-7
R6 15 16 62.5
C7 16 17 4.28e-7
R7 16 17 7.52
C8 17 18 3.02e-7
R8 17 18 1.14
C9 18 19 1.76e-7
R9 18 19 1.73e-1
L10 19 20 1.63e-11
R10 19 20 1.93e-1
C11 20 21 1.22e-9
L11 20 21 3.01e-11
R11 20 21 9.40e-2
C12 21 port2 2.11e-12
L12 21 port2 8.95e-11
R12 21 port2 25.1
R100 port1 11 1.00e+10
.ENDS GRM033R61E472KA12_DC0V_25degC