*----------------------------------------------------------------------
* SPICE Model generated by Murata Manufacturing Co., Ltd.
* Copyright(C) Murata Manufacturing Co., Ltd.
* Description :1005M(0402)/X5R/10uF/6.3V
* Murata P/N :GRM155R60J106ME15
* Property : C = 10[uF]
* Data Generated on Dec 2, 2019
*----------------------------------------------------------------------
* Applicable Conditions:
*   Frequency Range = 100Hz-6GHz
*   Temperature = 25 degC
*   DC Bias Voltage = 0V
*   Small Signal Operation
*----------------------------------------------------------------------
.SUBCKT GRM155R60J106ME15_DC0V_25degC port1 port2
C1 port1 11 7.77e-6
L2 11 12 1.24e-10
R3 12 13 4.50e-3
C4 13 14 4.75e-4
R4 13 14 8.46
C5 14 15 5.84e-4
R5 14 15 7.86e-1
C6 15 16 5.95e-4
R6 15 16 9.76e-2
C7 16 17 5.45e-4
R7 16 17 1.17e-2
C8 17 18 4.68e-4
R8 17 18 1.37e-3
L9 18 19 3.07e-11
R9 18 19 1.45e-1
L10 19 20 6.42e-11
R10 19 20 3.25e-2
L11 20 21 2.40e-10
R11 20 21 1.46e-2
C12 21 22 1.43e-5
L12 21 22 6.18e-11
R12 21 22 1.50e-3
C13 22 23 7.03e-5
L13 22 23 7.75e-12
R13 22 23 8.08e-4
C14 23 port2 7.75e-12
L14 23 port2 3.49e-11
R14 23 port2 11.2
R100 port1 11 5.00e+6
.ENDS GRM155R60J106ME15_DC0V_25degC