*----------------------------------------------------------------------
* SPICE Model generated by Murata Manufacturing Co., Ltd.
* Copyright(C) Murata Manufacturing Co., Ltd.
* Description :0603M(0201)/X5R/1000pF/25V
* Murata P/N :GRM033R61E102KA01
* Property : C = 1000[pF]
* Data Generated on Aug 1, 2022
*----------------------------------------------------------------------
* Applicable Conditions:
*   Frequency Range = 100Hz-6GHz
*   Temperature = 25 degC
*   DC Bias Voltage = 0V
*   Small Signal Operation
*----------------------------------------------------------------------
.SUBCKT GRM033R61E102KA01_DC0V_25degC port1 port2
C1 port1 11 1.02e-9
L2 11 12 1.99e-10
R3 12 13 2.18e-1
C4 13 14 7.35e-8
R4 13 14 3.46e+4
C5 14 15 1.32e-7
R5 14 15 869
C6 15 16 1.29e-7
R6 15 16 69.1
C7 16 17 9.72e-8
R7 16 17 8.32
C8 17 18 1.90e-7
R8 17 18 1.26
C9 18 19 7.40e-8
R9 18 19 6.56e-1
C10 19 20 2.13e-8
R10 19 20 2.92e-1
C11 20 21 2.82e-10
L11 20 21 2.57e-11
R11 20 21 2.26e-1
C12 21 port2 5.00e-12
L12 21 port2 5.80e-11
R12 21 port2 8.56
R100 port1 11 1.00e+10
.ENDS GRM033R61E102KA01_DC0V_25degC