*----------------------------------------------------------------------
* SPICE Model generated by Murata Manufacturing Co., Ltd.
* Copyright(C) Murata Manufacturing Co., Ltd.
* Description :0603M(0201)/X5R/22000pF/10V
* Murata P/N :GRM033R61A223KE84
* Property : C = 22000[pF]
* Data Generated on Aug 1, 2022
*----------------------------------------------------------------------
* Applicable Conditions:
*   Frequency Range = 100Hz-6GHz
*   Temperature = 25 degC
*   DC Bias Voltage = 0V
*   Small Signal Operation
*----------------------------------------------------------------------
.SUBCKT GRM033R61A223KE84_DC0V_25degC port1 port2
C1 port1 11 2.24e-8
L2 11 12 1.84e-10
R3 12 13 3.63e-2
C4 13 14 1.31e-6
R4 13 14 2.61e+3
C5 14 15 2.76e-6
R5 14 15 177
C6 15 16 2.74e-6
R6 15 16 30.7
C7 16 17 4.32e-6
R7 16 17 3.07
C8 17 18 3.20e-6
R8 17 18 7.65e-1
C9 18 19 2.70e-6
R9 18 19 1.24e-1
C10 19 20 2.99e-6
R10 19 20 3.30e-2
C11 20 21 2.21e-6
R11 20 21 1.11e-2
L12 21 22 4.95e-11
R12 21 22 1.41e-1
C13 22 23 2.75e-8
L13 22 23 2.57e-11
R13 22 23 3.44e-2
C14 23 port2 1.06e-12
L14 23 port2 2.55e-11
R14 23 port2 2.22
R100 port1 11 2.00e+9
.ENDS GRM033R61A223KE84_DC0V_25degC