*----------------------------------------------------------------------
* SPICE Model generated by Murata Manufacturing Co., Ltd.
* Copyright(C) Murata Manufacturing Co., Ltd.
* Description :0603M(0201)/X5R/1uF/6.3V
* Murata P/N :GRM033R60J105MEA2
* Property : C = 1[uF]
* Data Generated on Dec 1, 2020
*----------------------------------------------------------------------
* Applicable Conditions:
*   Frequency Range = 100Hz-6GHz
*   Temperature = 25 degC
*   DC Bias Voltage = 0V
*   Small Signal Operation
*----------------------------------------------------------------------
.SUBCKT GRM033R60J105MEA2_DC0V_25degC port1 port2
C1 port1 11 7.76e-7
L2 11 12 1.33e-10
R3 12 13 9.18e-3
C4 13 14 5.20e-5
R4 13 14 40.3
C5 14 15 4.90e-5
R5 14 15 5.17
C6 15 16 4.88e-5
R6 15 16 6.72e-1
C7 16 17 4.98e-5
R7 16 17 7.33e-2
C8 17 18 2.73e-5
R8 17 18 1.58e-2
L9 18 19 1.14e-11
R9 18 19 2.87e-1
L10 19 20 2.43e-11
R10 19 20 9.38e-2
L11 20 21 8.88e-11
R11 20 21 3.13e-2
C12 21 22 2.75e-6
L12 21 22 1.90e-11
R12 21 22 3.52e-3
C13 22 port2 1.45e-6
L13 22 port2 1.70e-11
R13 22 port2 4.44e-3
R100 port1 11 5.00e+7
.ENDS GRM033R60J105MEA2_DC0V_25degC