*----------------------------------------------------------------------
* SPICE Model generated by Murata Manufacturing Co., Ltd.
* Copyright(C) Murata Manufacturing Co., Ltd.
* Description :0603M(0201)/X5R/0.22uF/10V
* Murata P/N :GRM033R61A224KE90
* Property : C = 0.22[uF]
* Data Generated on Nov 6, 2018
*----------------------------------------------------------------------
* Applicable Conditions:
*   Frequency Range = 100Hz-6GHz
*   Temperature = 25 degC
*   DC Bias Voltage = 0V
*   Small Signal Operation
*----------------------------------------------------------------------
.SUBCKT GRM033R61A224KE90_DC0V_25degC port1 port2
C1 port1 11 2.07e-7
L2 11 12 1.36e-10
R3 12 13 1.66e-2
C4 13 14 1.78e-5
R4 13 14 165
C5 14 15 1.88e-5
R5 14 15 36.9
C6 15 16 2.52e-5
R6 15 16 3.61
C7 16 17 2.20e-5
R7 16 17 5.99e-1
C8 17 18 1.72e-5
R8 17 18 8.70e-2
C9 18 19 1.10e-5
R9 18 19 1.87e-2
C10 19 20 1.36e-5
R10 19 20 2.42e-3
L11 20 21 1.91e-11
R11 20 21 1.10e-1
L12 21 22 6.08e-11
R12 21 22 5.08e-2
C13 22 23 1.49e-7
L13 22 23 4.57e-11
R13 22 23 1.24e-2
C14 23 port2 8.11e-12
L14 23 port2 2.92e-11
R14 23 port2 2.91
R100 port1 11 2.27e+8
.ENDS GRM033R61A224KE90_DC0V_25degC