*----------------------------------------------------------------------
* SPICE Model generated by Murata Manufacturing Co., Ltd.
* Copyright(C) Murata Manufacturing Co., Ltd.
* Description :0603M(0201)/X5R/10000pF/16V
* Murata P/N :GRM033R61C103KA12
* Property : C = 10000[pF]
* Data Generated on Aug 1, 2022
*----------------------------------------------------------------------
* Applicable Conditions:
*   Frequency Range = 100Hz-6GHz
*   Temperature = 25 degC
*   DC Bias Voltage = 0V
*   Small Signal Operation
*----------------------------------------------------------------------
.SUBCKT GRM033R61C103KA12_DC0V_25degC port1 port2
C1 port1 11 9.72e-9
L2 11 12 2.06e-10
R3 12 13 5.50e-2
C4 13 14 9.31e-7
R4 13 14 3.97e+3
C5 14 15 1.60e-6
R5 14 15 362
C6 15 16 1.31e-6
R6 15 16 64.3
C7 16 17 1.22e-6
R7 16 17 8.68
C8 17 18 8.77e-7
R8 17 18 1.22
C9 18 19 6.54e-7
R9 18 19 2.66e-1
C10 19 20 6.70e-7
R10 19 20 3.86e-2
L11 20 21 4.02e-11
R11 20 21 1.62e-1
L12 21 22 5.07e-12
R12 21 22 5.51e-2
C13 22 23 1.03e-8
L13 22 23 2.05e-11
R13 22 23 4.27e-2
C14 23 port2 2.36e-11
L14 23 port2 1.34e-11
R14 23 port2 1.68
R100 port1 11 1.00e+10
.ENDS GRM033R61C103KA12_DC0V_25degC