*----------------------------------------------------------------------
* SPICE Model generated by Murata Manufacturing Co., Ltd.
* Copyright(C) Murata Manufacturing Co., Ltd.
* Description :1005M(0402)/X7R/0.1uF/25V
* Murata P/N :GRM155R71E104KE14
* Property : C = 0.1[uF]
* Data Generated on Feb 1, 2022
*----------------------------------------------------------------------
* Applicable Conditions:
*   Frequency Range = 100Hz-6GHz
*   Temperature = 25 degC
*   DC Bias Voltage = 0V
*   Small Signal Operation
*----------------------------------------------------------------------
.SUBCKT GRM155R71E104KE14_DC0V_25degC port1 port2
C1 port1 11 9.30e-8
L2 11 12 1.17e-10
R3 12 13 1.44e-2
C4 13 14 1.25e-5
R4 13 14 304
C5 14 15 1.65e-5
R5 14 15 43.9
C6 15 16 1.41e-5
R6 15 16 7.46
C7 16 17 1.28e-5
R7 16 17 1.30
C8 17 18 1.03e-5
R8 17 18 1.98e-1
C9 18 19 7.71e-6
R9 18 19 3.89e-2
C10 19 20 9.53e-6
R10 19 20 7.15e-3
L11 20 21 1.30e-11
R11 20 21 8.90e-2
L12 21 22 9.65e-11
R12 21 22 6.74e-2
C13 22 23 6.50e-7
L13 22 23 1.23e-11
R13 22 23 1.12e-2
C14 23 24 1.85e-7
L14 23 24 2.10e-11
R14 23 24 2.12e-2
C15 24 port2 2.31e-12
L15 24 port2 8.12e-11
R15 24 port2 19.4
R100 port1 11 5.00e+8
.ENDS GRM155R71E104KE14_DC0V_25degC