* CL05A226MQ5QUN Multilayer Ceramic Capacitor Spice Model
*-----------------------------------------------------------------------------------------------
* Model Generated by Samsung Electro-Mechanics
* Samsung Spice Model Version 5.0
* Date : Feb-18-2023
* Products : Multilayer Ceramic Capacitor(General)
*-----------------------------------------------------------------------------------------------
* Characteristics :
*
*     Nominal Capacitance = 22uF
*     Capacitance Tolerance = +/-20%
*     TCC = X5R(-55 ~ +85 degC.)
*     Rated Voltage = 6.3Vdc
*     Size = 0402(unit:inch), 1005(unit:mm)
*     Length = 1.00+/-0.20mm
*     Width = 0.50+/-0.20mm
*     Thickness = 0.50+/-0.20mm
*     Reliability level = Standard
*     Lineup = Lineup Normal
*     Feature = Features Normal
*     Measurement Temperature : 25degC.
*     DC bias Value = 0V
*     Frequency : 100Hz ~ 6GHz
*-----------------------------------------------------------------------------------------------
* External Node Assignments :
*
*  1  o---||---o  2
*
*-----------------------------------------------------------------------------------------------
.SUBCKT CL05A226MQ5QUN_Precise_DC0V_25degC 1 2
C1 1 3 7.56729E-6
C2 3 4 7.28300E-5
C3 4 5 1.03674E-4
C4 5 6 9.87795E-5
C5 6 7 9.83815E-5
C6 7 8 7.55236E-5
C7 8 9 1.33695E-5
C8 9 10 1.0E-10
C16 17 18 0.00374
C17 18 19 5.77497E-4
C18 19 20 0.00222
C19 20 21 1.41267E-4
C20 21 22 3.34163E-6
C21 22 23 2.53303E-4
C22 23 24 2.53303E-4
C23 24 25 2.53303E-4
C24 25 26 7.72498E-7
C25 26 27 2.05113E-9
C26 27 28 5.56524E-11
C27 28 2 2.53303E-4
L10 11 12 5.02056E-11 Rser=0.0
L11 12 13 1.30192E-10 Rser=0.0
L12 13 14 2.40515E-11 Rser=0.0
L13 14 15 5.33031E-12 Rser=0.0
L14 15 16 1.0E-10 Rser=0.0
L15 16 17 1.0E-10 Rser=0.0
L16 17 18 1.69656E-12 Rser=0.0
L17 18 19 4.28291E-12 Rser=0.0
L18 19 20 5.96286E-13 Rser=0.0
L19 20 21 7.05788E-12 Rser=0.0
L20 21 22 1.87287E-10 Rser=0.0
L21 22 23 1.0E-10 Rser=0.0
L22 23 24 1.0E-10 Rser=0.0
L23 24 25 1.0E-10 Rser=0.0
L24 25 26 1.31144E-10 Rser=0.0
L25 26 27 3.87155E-11 Rser=0.0
L26 27 28 7.48035E-12 Rser=0.0
L27 28 2 1.0E-10 Rser=0.0
R1 1 3 1.0E8
R2 3 4 47.49605
R3 4 5 3.17498
R4 5 6 0.46497
R5 6 7 0.06541
R6 7 8 0.00966
R7 8 9 0.00269
R8 9 10 1.0E-6
R9 10 11 0.00225
R11 12 13 0.02631
R12 13 14 0.19798
R13 14 15 0.35727
R14 15 16 1.0E-6
R15 16 17 1.0E-6
R16 17 18 1.51227E-4
R17 18 19 5.08923E-4
R18 19 20 1.84576E-4
R19 20 21 8.30400E-4
R20 21 22 0.00608
R21 22 23 1.0E-6
R22 23 24 1.0E-6
R23 24 25 1.0E-6
R24 25 26 0.00744
R25 26 27 0.06201
R26 27 28 1.04345
R27 28 2 1.0E-6
.ENDS CL05A226MQ5QUN_Precise_DC0V_25degC