* CL05A106MP5NUN Multilayer Ceramic Capacitor Spice Model
*-----------------------------------------------------------------------------------------------
* Model Generated by Samsung Electro-Mechanics
* Samsung Spice Model Version 5.0
* Date : Feb-18-2023
* Products : Multilayer Ceramic Capacitor(General)
*-----------------------------------------------------------------------------------------------
* Characteristics :
*
*     Nominal Capacitance = 10uF
*     Capacitance Tolerance = +/-20%
*     TCC = X5R(-55 ~ +85 degC.)
*     Rated Voltage = 10Vdc
*     Size = 0402(unit:inch), 1005(unit:mm)
*     Length = 1.00+/-0.20mm
*     Width = 0.50+/-0.20mm
*     Thickness = 0.50+/-0.20mm
*     Reliability level = Standard
*     Lineup = Lineup Normal
*     Feature = Features Normal
*     Measurement Temperature : 25degC.
*     DC bias Value = 0V
*     Frequency : 0Hz ~ 0Hz
*-----------------------------------------------------------------------------------------------
* External Node Assignments :
*
*  1  o---||---o  2
*
*-----------------------------------------------------------------------------------------------
.SUBCKT CL05A106MP5NUN_Precise_DC0V_25degC 1 2
C1 1 3 7.37670E-6
C2 3 4 1.28310E-4
C3 4 5 2.58665E-4
C4 5 6 2.56497E-4
C5 6 7 2.90867E-4
C6 7 8 2.30931E-4
C7 8 9 1.54724E-5
C8 9 10 1.0E-10
C16 17 18 1.03707E-4
C17 18 19 0.00647
C18 19 20 0.00187
C19 20 21 7.65475E-6
C20 21 22 2.53303E-4
C21 22 23 2.53303E-4
C22 23 24 2.53303E-4
C23 24 25 8.95566E-7
C24 25 26 2.53303E-4
C25 26 27 2.53303E-4
C26 27 28 2.14961E-9
C27 28 2 5.71799E-11
L10 11 12 4.01766E-11 Rser=0.0
L11 12 13 1.77655E-10 Rser=0.0
L12 13 14 5.20248E-11 Rser=0.0
L13 14 15 9.32541E-12 Rser=0.0
L14 15 16 1.0E-10 Rser=0.0
L15 16 17 1.0E-10 Rser=0.0
L16 17 18 5.44445E-11 Rser=0.0
L17 18 19 4.07293E-13 Rser=0.0
L18 19 20 7.08111E-13 Rser=0.0
L19 20 21 1.23447E-10 Rser=0.0
L20 21 22 1.0E-10 Rser=0.0
L21 22 23 1.0E-10 Rser=0.0
L22 23 24 1.0E-10 Rser=0.0
L23 24 25 3.06166E-10 Rser=0.0
L24 25 26 1.0E-10 Rser=0.0
L25 26 27 1.0E-10 Rser=0.0
L26 27 28 1.00545E-11 Rser=0.0
L27 28 2 7.44089E-12 Rser=0.0
R1 1 3 1.0E8
R2 3 4 43.09736
R3 4 5 1.76902
R4 5 6 0.29084
R5 6 7 0.04029
R6 7 8 0.00748
R7 8 9 0.00541
R8 9 10 1.0E-6
R9 10 11 0.00360
R11 12 13 0.03073
R12 13 14 0.22012
R13 14 15 0.17764
R14 15 16 1.0E-6
R15 16 17 1.0E-6
R16 17 18 8.21533E-4
R17 18 19 9.85216E-5
R18 19 20 1.20886E-4
R19 20 21 0.00209
R20 21 22 1.0E-6
R21 22 23 1.0E-6
R22 23 24 1.0E-6
R23 24 25 0.00835
R24 25 26 1.0E-6
R25 26 27 1.0E-6
R26 27 28 0.05030
R27 28 2 1.11207
.ENDS CL05A106MP5NUN_Precise_DC0V_25degC