* CL21A475KAQNNN Multilayer Ceramic Capacitor Spice Model
*-----------------------------------------------------------------------------------------------
* Model Generated by Samsung Electro-Mechanics
* Samsung Spice Model Version 5.0
* Date : Feb-18-2023
* Products : Multilayer Ceramic Capacitor(General)
*-----------------------------------------------------------------------------------------------
* Characteristics :
*
*     Nominal Capacitance = 4.7uF
*     Capacitance Tolerance = +/-10%
*     TCC = X5R(-55 ~ +85 degC.)
*     Rated Voltage = 25Vdc
*     Size = 0805(unit:inch), 2012(unit:mm)
*     Length = 2.00+/-0.15mm
*     Width = 1.25+/-0.15mm
*     Thickness = 1.25+/-0.15mm
*     Reliability level = Standard
*     Lineup = Lineup Normal
*     Feature = Features Normal
*     Measurement Temperature : 25degC.
*     DC bias Value = 0V
*     Frequency : 100Hz ~ 6GHz
*-----------------------------------------------------------------------------------------------
* External Node Assignments :
*
*  1  o---||---o  2
*
*-----------------------------------------------------------------------------------------------
.SUBCKT CL21A475KAQNNN_Precise_DC0V_25degC 1 2
C1 1 3 4.38577E-6
C2 3 4 1.77542E-4
C3 4 5 1.40354E-4
C4 5 6 1.68279E-4
C5 6 7 1.52501E-4
C6 7 8 1.68401E-4
C7 8 9 1.24303E-4
C8 9 10 1.0E-10
C16 17 18 7.68182E-4
C17 18 19 0.01006
C18 19 20 0.00590
C19 20 21 0.00344
C20 21 22 0.03925
C21 22 23 0.00730
C22 23 24 2.53303E-4
C23 24 25 1.15551E-5
C24 25 26 8.37870E-6
C25 26 27 7.50370E-7
C26 27 28 3.45771E-11
C27 28 2 1.97843E-11
L10 11 12 8.00903E-11 Rser=0.0
L11 12 13 1.45629E-10 Rser=0.0
L12 13 14 3.50716E-11 Rser=0.0
L13 14 15 2.49131E-11 Rser=0.0
L14 15 16 1.0E-10 Rser=0.0
L15 16 17 1.0E-10 Rser=0.0
L16 17 18 2.67057E-10 Rser=0.0
L17 18 19 1.03805E-11 Rser=0.0
L18 19 20 3.85462E-12 Rser=0.0
L19 20 21 3.11635E-12 Rser=0.0
L20 21 22 8.46053E-14 Rser=0.0
L21 22 23 3.21026E-13 Rser=0.0
L22 23 24 1.0E-10 Rser=0.0
L23 24 25 4.89932E-11 Rser=0.0
L24 25 26 4.82430E-11 Rser=0.0
L25 26 27 1.44055E-10 Rser=0.0
L26 27 28 5.37531E-11 Rser=0.0
L27 28 2 2.73190E-11 Rser=0.0
R1 1 3 1.0E8
R2 3 4 81.02105
R3 4 5 14.41555
R4 5 6 1.98782
R5 6 7 0.42425
R6 7 8 0.05188
R7 8 9 0.01000
R8 9 10 1.0E-6
R9 10 11 0.00373
R11 12 13 0.03222
R12 13 14 0.07792
R13 14 15 2.92466
R14 15 16 1.0E-6
R15 16 17 1.0E-6
R16 17 18 5.01870E-4
R17 18 19 7.97940E-5
R18 19 20 1.27319E-4
R19 20 21 2.64408E-4
R20 21 22 9.01034E-5
R21 22 23 9.92284E-5
R22 23 24 1.0E-6
R23 24 25 0.00435
R24 25 26 0.00435
R25 26 27 0.00809
R26 27 28 2.19995
R27 28 2 1.31543
.ENDS CL21A475KAQNNN_Precise_DC0V_25degC