* MSASE021SB5221_WNA01     SPICE MODEL  ( Standard Model )
*--------------------------------------------------------------------------------------------------------
* Model Generated by TAIYO YUDEN Corporation (http://www.ty-top.com)
* Version 1.0
* TAIYO YUDEN Control No. 220601
* Copyright(c) 2015 TAIYO YUDEN CO.,LTD. All Rights Reserved.
*--------------------------------------------------------------------------------------------------------
*
* Product Description (link to TY-COMPAS)
* https://ds.yuden.co.jp/TYCOMPAS/or/detail?pn=MSASE021SB5221KWNA01&u=M
*
* Products Name : Multilayer Ceramic Capacitors
*
* Characteristics :
*     Capacitance : 220 [pF] , Rated Voltage : 16 [V] , TCC : X5R
*     Case Size : 0.25 x 0.125 / 0.0098 x 0.0049 [mm/inch] , Thickness : 0.125 / 0.0049 [mm/inch]
*     (Conditions: Temperature = 25 [degC] , DC Bias Voltage = 0 [V])
*
* Frequency Range : 100kHz - 3GHz
*
* External Node Assignments :
*
*  1  o---| |---o  2
*
*--------------------------------------------------------------------------------------------------------
.SubCkt MSASE021SB5221_WNA01 1 2
****************************
C0 1 110 167.39p
C2m 1 301 62.382p
Rc21 301 302 47.958m
C22 302 303 3399.3p
Rc22 302 303 1.1064k
C23 303 304 732.25p
Rc23 303 304 4.4463k
C24 304 305 1363.3p
Rc24 304 305 2.3112k
C25 305 306 1173.6p
Rc25 305 306 285.24
C26 306 307 471.61p
Rc26 306 307 53.229
C27 307 308 193.26p
Rc27 307 308 14.577
C28 308 110 2.6134f
Rc28 308 110 8.5337
Rp0 1 110 45.455G
L0 110 120 0.12501n
Lm 120 130 9.6246f
L1 120 121 0.66556p
RL1 121 130 5.1484m
CR 120 130 468.91p
Rs 130 2 0.50405
****************************
.ends MSASE021SB5221_WNA01



* MSASE021SB5471_WNA01     SPICE MODEL  ( Standard Model )
*--------------------------------------------------------------------------------------------------------
* Model Generated by TAIYO YUDEN Corporation (http://www.ty-top.com)
* Version 1.0
* TAIYO YUDEN Control No. 220601
* Copyright(c) 2015 TAIYO YUDEN CO.,LTD. All Rights Reserved.
*--------------------------------------------------------------------------------------------------------
*
* Product Description (link to TY-COMPAS)
* https://ds.yuden.co.jp/TYCOMPAS/or/detail?pn=MSASE021SB5471KWNA01&u=M
*
* Products Name : Multilayer Ceramic Capacitors
*
* Characteristics :
*     Capacitance : 470 [pF] , Rated Voltage : 16 [V] , TCC : X5R
*     Case Size : 0.25 x 0.125 / 0.0098 x 0.0049 [mm/inch] , Thickness : 0.125 / 0.0049 [mm/inch]
*     (Conditions: Temperature = 25 [degC] , DC Bias Voltage = 0 [V])
*
* Frequency Range : 100kHz - 3GHz
*
* External Node Assignments :
*
*  1  o---| |---o  2
*
*--------------------------------------------------------------------------------------------------------
.SubCkt MSASE021SB5471_WNA01 1 2
****************************
C0 1 110 348.38p
C2m 1 301 104.12p
Rc21 301 302 87.271m
C22 302 303 0.14016u
Rc22 302 303 3.1587k
C23 303 304 0.10177u
Rc23 303 304 702.41
C24 304 305 537.92p
Rc24 304 305 5.6023k
C25 305 306 1678.6p
Rc25 305 306 184.79
C26 306 307 955.34p
Rc26 306 307 48.478
C27 307 308 291.63p
Rc27 307 308 16.154
C28 308 110 4.8922f
Rc28 308 110 7.8928
Rp0 1 110 21.277G
L0 110 120 0.11702n
Lm 120 130 0.019063p
L1 120 121 1.0086p
RL1 121 130 3.8272m
CR 120 124 1431.9p
LR 124 125 0.90396p
RR 125 130 9.7335m
Rs 130 2 0.43999
****************************
.ends MSASE021SB5471_WNA01



* MSASE021SB5102_WNA01     SPICE MODEL  ( Standard Model )
*--------------------------------------------------------------------------------------------------------
* Model Generated by TAIYO YUDEN Corporation (http://www.ty-top.com)
* Version 1.0
* TAIYO YUDEN Control No. 220601
* Copyright(c) 2015 TAIYO YUDEN CO.,LTD. All Rights Reserved.
*--------------------------------------------------------------------------------------------------------
*
* Product Description (link to TY-COMPAS)
* https://ds.yuden.co.jp/TYCOMPAS/or/detail?pn=MSASE021SB5102KWNA01&u=M
*
* Products Name : Multilayer Ceramic Capacitors
*
* Characteristics :
*     Capacitance : 1000 [pF] , Rated Voltage : 16 [V] , TCC : X5R
*     Case Size : 0.25 x 0.125 / 0.0098 x 0.0049 [mm/inch] , Thickness : 0.125 / 0.0049 [mm/inch]
*     (Conditions: Temperature = 25 [degC] , DC Bias Voltage = 0 [V])
*
* Frequency Range : 100kHz - 3GHz
*
* External Node Assignments :
*
*  1  o---| |---o  2
*
*--------------------------------------------------------------------------------------------------------
.SubCkt MSASE021SB5102_WNA01 1 2
****************************
C0 1 110 866.72p
C2m 1 301 90.6p
Rc21 301 302 0.68414
C22 302 303 0.058586u
Rc22 302 303 162.92
C23 303 304 739.48p
Rc23 303 304 2.3565k
C24 304 305 3612.8p
Rc24 304 305 464.59
C25 305 306 875.94p
Rc25 305 306 1.704k
C26 306 307 406.19p
Rc26 306 307 549.54
C27 307 308 195.15p
Rc27 307 308 138.09
C28 308 309 0.020237p
Rc28 308 309 98.301
C29 309 110 0.065953p
Rc29 309 110 5.2051
Rp0 1 110 10G
L0 110 120 0.12456n
Lm 120 130 9.9695p
L1 120 121 6.1708p
RL1 121 130 0.69022
L2 120 122 0.013703n
RL2 122 130 2.0444
L3 120 123 0.035555n
RL3 123 130 0.92871
CR 120 124 341.1p
LR 124 125 3.8682p
RR 125 130 0.11592
Rs 130 2 0.32401
****************************
.ends MSASE021SB5102_WNA01



* MSASJ021SB5222_WNA01     SPICE MODEL  ( Standard Model )
*--------------------------------------------------------------------------------------------------------
* Model Generated by TAIYO YUDEN Corporation (http://www.ty-top.com)
* Version 1.0
* TAIYO YUDEN Control No. 220601
* Copyright(c) 2015 TAIYO YUDEN CO.,LTD. All Rights Reserved.
*--------------------------------------------------------------------------------------------------------
*
* Product Description (link to TY-COMPAS)
* https://ds.yuden.co.jp/TYCOMPAS/or/detail?pn=MSASJ021SB5222KWNA01&u=M
*
* Products Name : Multilayer Ceramic Capacitors
*
* Characteristics :
*     Capacitance : 2200 [pF] , Rated Voltage : 6.3 [V] , TCC : X5R
*     Case Size : 0.25 x 0.125 / 0.0098 x 0.0049 [mm/inch] , Thickness : 0.125 / 0.0049 [mm/inch]
*     (Conditions: Temperature = 25 [degC] , DC Bias Voltage = 0 [V])
*
* Frequency Range : 100kHz - 3GHz
*
* External Node Assignments :
*
*  1  o---| |---o  2
*
*--------------------------------------------------------------------------------------------------------
.SubCkt MSASJ021SB5222_WNA01 1 2
****************************
C0 1 110 1992.6p
C2m 1 301 156.57p
C21 301 302 0.061292u
Rc21 301 302 23.453
C22 302 303 935.92p
Rc22 302 303 1.5152k
C23 303 304 1005.4p
Rc23 303 304 1.3169k
C24 304 305 0.021629u
Rc24 304 305 54.525
C25 305 306 498.62p
Rc25 305 306 431.35
C26 306 307 216.17p
Rc26 306 307 149.08
C27 307 308 0.8266p
Rc27 307 308 4.1431
C28 308 309 1.1857p
Rc28 308 309 2.5646
C29 309 110 0.015258p
Rc29 309 110 147.36
Rp0 1 110 4.5455G
L0 110 120 0.1245n
Lm 120 130 0.022777n
L1 120 121 0.092511p
RL1 121 130 1.1733
L2 120 122 0.6144p
RL2 122 130 3.9076
L3 120 123 0.1907n
RL3 123 130 1.2597
CR 120 124 1316.4p
LR 124 125 0.010084p
RR 125 130 0.27371
Rs 130 2 0.19927
****************************
.ends MSASJ021SB5222_WNA01



* MSASJ021SB5472_WNA01     SPICE MODEL  ( Standard Model )
*--------------------------------------------------------------------------------------------------------
* Model Generated by TAIYO YUDEN Corporation (http://www.ty-top.com)
* Version 1.0
* TAIYO YUDEN Control No. 220601
* Copyright(c) 2015 TAIYO YUDEN CO.,LTD. All Rights Reserved.
*--------------------------------------------------------------------------------------------------------
*
* Product Description (link to TY-COMPAS)
* https://ds.yuden.co.jp/TYCOMPAS/or/detail?pn=MSASJ021SB5472KWNA01&u=M
*
* Products Name : Multilayer Ceramic Capacitors
*
* Characteristics :
*     Capacitance : 4700 [pF] , Rated Voltage : 6.3 [V] , TCC : X5R
*     Case Size : 0.25 x 0.125 / 0.0098 x 0.0049 [mm/inch] , Thickness : 0.125 / 0.0049 [mm/inch]
*     (Conditions: Temperature = 25 [degC] , DC Bias Voltage = 0 [V])
*
* Frequency Range : 100kHz - 3GHz
*
* External Node Assignments :
*
*  1  o---| |---o  2
*
*--------------------------------------------------------------------------------------------------------
.SubCkt MSASJ021SB5472_WNA01 1 2
****************************
C0 1 110 4022.4p
C2m 1 301 300.67p
C21 301 302 5636.7p
Rc21 301 302 346.68
C22 302 303 9084p
Rc22 302 303 206.59
C23 303 304 2975p
Rc23 303 304 517.34
C24 304 305 1939.3p
Rc24 304 305 769.87
C25 305 306 1155.1p
Rc25 305 306 290.18
C26 306 307 657.99p
Rc26 306 307 118.04
C27 307 308 1.7015p
Rc27 307 308 23.461
C28 308 309 0.39978p
Rc28 308 309 94.55
C29 309 110 7.9986p
Rc29 309 110 2.5576
Rp0 1 110 2.1277G
L0 110 120 0.10648n
Lm 120 130 0.024651n
L1 120 121 3.794p
RL1 121 130 3.5683
L2 120 122 5.7863p
RL2 122 130 0.75779
L3 120 123 0.071735n
RL3 123 130 0.64763
CR 120 124 1676.1p
LR 124 125 2.6915p
RR 125 130 0.25772
Rs 130 2 98.678m
****************************
.ends MSASJ021SB5472_WNA01



* MSASJ021SB5103_WNA01     SPICE MODEL  ( Standard Model )
*--------------------------------------------------------------------------------------------------------
* Model Generated by TAIYO YUDEN Corporation (http://www.ty-top.com)
* Version 1.0
* TAIYO YUDEN Control No. 220601
* Copyright(c) 2015 TAIYO YUDEN CO.,LTD. All Rights Reserved.
*--------------------------------------------------------------------------------------------------------
*
* Product Description (link to TY-COMPAS)
* https://ds.yuden.co.jp/TYCOMPAS/or/detail?pn=MSASJ021SB5103KWNA01&u=M
*
* Products Name : Multilayer Ceramic Capacitors
*
* Characteristics :
*     Capacitance : 0.01 [uF] , Rated Voltage : 6.3 [V] , TCC : X5R
*     Case Size : 0.25 x 0.125 / 0.0098 x 0.0049 [mm/inch] , Thickness : 0.125 / 0.0049 [mm/inch]
*     (Conditions: Temperature = 25 [degC] , DC Bias Voltage = 0 [V])
*
* Frequency Range : 100kHz - 3GHz
*
* External Node Assignments :
*
*  1  o---| |---o  2
*
*--------------------------------------------------------------------------------------------------------
.SubCkt MSASJ021SB5103_WNA01 1 2
****************************
C0 1 110 9238.3p
C2m 1 301 545.03p
C21 301 302 7943.1p
Rc21 301 302 192.59
C22 302 303 0.011095u
Rc22 302 303 136.6
C23 303 304 9275.3p
Rc23 303 304 159.09
C24 304 305 4127.9p
Rc24 304 305 336.32
C25 305 306 1912.2p
Rc25 305 306 157.47
C26 306 307 1216.9p
Rc26 306 307 68.391
C27 307 308 1.2251p
Rc27 307 308 43.198
C28 308 309 0.96345p
Rc28 308 309 41.383
C29 309 110 13.831p
Rc29 309 110 1.2294
Rp0 1 110 1G
L0 110 120 0.087776n
Lm 120 130 0.037364n
L1 120 121 0.40163p
RL1 121 130 0.8368
L2 120 122 1.2513p
RL2 122 130 10.144
L3 120 123 0.052033n
RL3 123 130 0.39494
CR 120 124 2616.3p
LR 124 125 2.2688p
RR 125 130 0.22695
Rs 130 2 57.9m
****************************
.ends MSASJ021SB5103_WNA01



* MSASA021SB5223_WNA01     SPICE MODEL  ( Standard Model )
*--------------------------------------------------------------------------------------------------------
* Model Generated by TAIYO YUDEN Corporation (http://www.ty-top.com)
* Version 1.0
* TAIYO YUDEN Control No. 220601
* Copyright(c) 2015 TAIYO YUDEN CO.,LTD. All Rights Reserved.
*--------------------------------------------------------------------------------------------------------
*
* Product Description (link to TY-COMPAS)
* https://ds.yuden.co.jp/TYCOMPAS/or/detail?pn=MSASA021SB5223MWNA01&u=M
*
* Products Name : Multilayer Ceramic Capacitors
*
* Characteristics :
*     Capacitance : 0.022 [uF] , Rated Voltage : 4 [V] , TCC : X5R
*     Case Size : 0.25 x 0.125 / 0.0098 x 0.0049 [mm/inch] , Thickness : 0.125 / 0.0049 [mm/inch]
*     (Conditions: Temperature = 25 [degC] , DC Bias Voltage = 0 [V])
*
* Frequency Range : 100kHz - 3GHz
*
* External Node Assignments :
*
*  1  o---| |---o  2
*
*--------------------------------------------------------------------------------------------------------
.SubCkt MSASA021SB5223_WNA01 1 2
****************************
C0 1 110 0.015959u
C2m 1 301 980.5p
C21 301 302 0.2673u
Rc21 301 302 34.505
C22 302 303 0.1936u
Rc22 302 303 17.157
C23 303 304 0.011043u
Rc23 303 304 107.88
C24 304 305 3973.9p
Rc24 304 305 234.24
C25 305 306 3516.3p
Rc25 305 306 42.604
C26 306 307 2920.8p
Rc26 306 307 36.445
C27 307 308 7.0619p
Rc27 307 308 12.905
C28 308 309 1.3941p
Rc28 308 309 51.966
C29 309 110 58.501p
Rc29 309 110 0.58458
Rp0 1 110 454.55Meg
L0 110 120 0.090363n
Lm 120 130 0.045491n
L1 120 121 0.32496p
RL1 121 130 0.72141
L2 120 122 0.60503p
RL2 122 130 0.90343
L3 120 123 0.15299n
RL3 123 130 0.61747
CR 120 124 4263.4p
LR 124 125 0.012414n
RR 125 130 0.25209
Rs 130 2 42.035m
****************************
.ends MSASA021SB5223_WNA01



* MSASE042SB5101_WNA01     SPICE MODEL  ( Standard Model )
*--------------------------------------------------------------------------------------------------------
* Model Generated by TAIYO YUDEN Corporation (http://www.ty-top.com)
* Version 1.0
* TAIYO YUDEN Control No. 220601
* Copyright(c) 2016 TAIYO YUDEN CO.,LTD. All Rights Reserved.
*--------------------------------------------------------------------------------------------------------
*
* Product Description (link to TY-COMPAS)
* https://ds.yuden.co.jp/TYCOMPAS/or/detail?pn=MSASE042SB5101KWNA01&u=M
*
* Products Name : Multilayer Ceramic Capacitors
*
* Characteristics :
*     Capacitance : 100 [pF] , Rated Voltage : 16 [V] , TCC : X5R
*     Case Size : 0.4 x 0.2 / 0.016 x 0.008 [mm/inch] , Thickness : 0.2 / 0.008 [mm/inch]
*     (Conditions: Temperature = 25 [degC] , DC Bias Voltage = 0 [V])
*
* Frequency Range : 100kHz - 3GHz
*
* External Node Assignments :
*
*  1  o---| |---o  2
*
*--------------------------------------------------------------------------------------------------------
.SubCkt MSASE042SB5101_WNA01 1 2
****************************
C0 1 110 65.446p
C2m 1 301 34.634p
C21 301 302 500.1p
Rc21 301 302 35.528Meg
C22 302 303 228.03p
Rc22 302 303 3.1591Meg
C23 303 304 166.72p
Rc23 303 304 567.99k
C24 304 305 129.55p
Rc24 304 305 116.7k
C25 305 306 94.987p
Rc25 305 306 39.836k
C26 306 307 101.65p
Rc26 306 307 8.6773k
C27 307 308 120.21p
Rc27 307 308 590.23
C28 308 309 43.186p
Rc28 308 309 140.41
C29 309 110 8.6233f
Rc29 309 110 78.557
Rp0 1 110 10G
L0 110 120 0.15442n
Lm 120 130 0.021616p
L1 120 121 0.7554p
RL1 121 130 5.0604m
CR 120 124 2437.4p
RR 124 130 55.692m
Rs 130 2 0.68043
****************************
.ends MSASE042SB5101_WNA01



* MSASE042SB5151_WNA01     SPICE MODEL  ( Standard Model )
*--------------------------------------------------------------------------------------------------------
* Model Generated by TAIYO YUDEN Corporation (http://www.ty-top.com)
* Version 1.0
* TAIYO YUDEN Control No. 220601
* Copyright(c) 2016 TAIYO YUDEN CO.,LTD. All Rights Reserved.
*--------------------------------------------------------------------------------------------------------
*
* Product Description (link to TY-COMPAS)
* https://ds.yuden.co.jp/TYCOMPAS/or/detail?pn=MSASE042SB5151KWNA01&u=M
*
* Products Name : Multilayer Ceramic Capacitors
*
* Characteristics :
*     Capacitance : 150 [pF] , Rated Voltage : 16 [V] , TCC : X5R
*     Case Size : 0.4 x 0.2 / 0.016 x 0.008 [mm/inch] , Thickness : 0.2 / 0.008 [mm/inch]
*     (Conditions: Temperature = 25 [degC] , DC Bias Voltage = 0 [V])
*
* Frequency Range : 100kHz - 3GHz
*
* External Node Assignments :
*
*  1  o---| |---o  2
*
*--------------------------------------------------------------------------------------------------------
.SubCkt MSASE042SB5151_WNA01 1 2
****************************
C0 1 110 123.4p
C2m 1 301 29.405p
C21 301 302 311.03p
Rc21 301 302 42.182Meg
C22 302 303 111.77p
Rc22 302 303 29.662Meg
C23 303 304 171.21p
Rc23 303 304 2.5474Meg
C24 304 305 127.81p
Rc24 304 305 627.85k
C25 305 306 98.843p
Rc25 305 306 143.99k
C26 306 307 40.675p
Rc26 306 307 40.397k
C27 307 308 40.063p
Rc27 307 308 5.0917k
C28 308 309 46.429p
Rc28 308 309 658.62
C29 309 110 3.3937p
Rc29 309 110 480.4
Rp0 1 110 10G
L0 110 120 0.15076n
Lm 120 130 0.96316p
RL1 120 130 2.1811
L2 120 122 2.6028p
RL2 122 130 5.3304m
CR 120 124 2791p
LR 124 125 3.9224p
RR 125 130 54.887m
Rs 130 2 0.42295
****************************
.ends MSASE042SB5151_WNA01



* MSASE042SB5221_WNA01     SPICE MODEL  ( Standard Model )
*--------------------------------------------------------------------------------------------------------
* Model Generated by TAIYO YUDEN Corporation (http://www.ty-top.com)
* Version 1.0
* TAIYO YUDEN Control No. 220601
* Copyright(c) 2016 TAIYO YUDEN CO.,LTD. All Rights Reserved.
*--------------------------------------------------------------------------------------------------------
*
* Product Description (link to TY-COMPAS)
* https://ds.yuden.co.jp/TYCOMPAS/or/detail?pn=MSASE042SB5221KWNA01&u=M
*
* Products Name : Multilayer Ceramic Capacitors
*
* Characteristics :
*     Capacitance : 220 [pF] , Rated Voltage : 16 [V] , TCC : X5R
*     Case Size : 0.4 x 0.2 / 0.016 x 0.008 [mm/inch] , Thickness : 0.2 / 0.008 [mm/inch]
*     (Conditions: Temperature = 25 [degC] , DC Bias Voltage = 0 [V])
*
* Frequency Range : 100kHz - 3GHz
*
* External Node Assignments :
*
*  1  o---| |---o  2
*
*--------------------------------------------------------------------------------------------------------
.SubCkt MSASE042SB5221_WNA01 1 2
****************************
C0 1 110 158.2p
C2m 1 301 56.573p
C21 301 302 283.72p
Rc21 301 302 23.571Meg
C22 302 303 634.73p
Rc22 302 303 3.4243Meg
C23 303 304 457.03p
Rc23 303 304 953.4k
C24 304 305 455.89p
Rc24 304 305 198.84k
C25 305 306 354.36p
Rc25 305 306 56.592k
C26 306 307 73.205p
Rc26 306 307 21.447k
C27 307 308 56.478p
Rc27 307 308 3.1303k
C28 308 309 33.674p
Rc28 308 309 591.74
C29 309 110 0.088322p
Rc29 309 110 212.81
Rp0 1 110 10G
L0 110 120 0.14266n
Lm 120 130 0.49338p
RL1 120 130 2.1689
L2 120 122 1.147p
RL2 122 130 6.6102m
CR 120 124 4476.1p
LR 124 125 3.6942p
RR 125 130 42.061m
Rs 130 2 0.51697
****************************
.ends MSASE042SB5221_WNA01



* MSASE042SB5331_WNA01     SPICE MODEL  ( Standard Model )
*--------------------------------------------------------------------------------------------------------
* Model Generated by TAIYO YUDEN Corporation (http://www.ty-top.com)
* Version 1.0
* TAIYO YUDEN Control No. 220601
* Copyright(c) 2016 TAIYO YUDEN CO.,LTD. All Rights Reserved.
*--------------------------------------------------------------------------------------------------------
*
* Product Description (link to TY-COMPAS)
* https://ds.yuden.co.jp/TYCOMPAS/or/detail?pn=MSASE042SB5331KWNA01&u=M
*
* Products Name : Multilayer Ceramic Capacitors
*
* Characteristics :
*     Capacitance : 330 [pF] , Rated Voltage : 16 [V] , TCC : X5R
*     Case Size : 0.4 x 0.2 / 0.016 x 0.008 [mm/inch] , Thickness : 0.2 / 0.008 [mm/inch]
*     (Conditions: Temperature = 25 [degC] , DC Bias Voltage = 0 [V])
*
* Frequency Range : 100kHz - 3GHz
*
* External Node Assignments :
*
*  1  o---| |---o  2
*
*--------------------------------------------------------------------------------------------------------
.SubCkt MSASE042SB5331_WNA01 1 2
****************************
C0 1 110 300.47p
C2m 1 301 55.566p
C21 301 302 2027p
Rc21 301 302 13.313Meg
C22 302 303 1279.2p
Rc22 302 303 7.8647Meg
C23 303 304 501.99p
Rc23 303 304 1.6004Meg
C24 304 305 499.48p
Rc24 304 305 250.83k
C25 305 306 446.65p
Rc25 305 306 51.895k
C26 306 307 114.35p
Rc26 306 307 15.702k
C27 307 308 130.6p
Rc27 307 308 1.5831k
C28 308 309 80.294p
Rc28 308 309 287.62
C29 309 110 0.027324p
Rc29 309 110 116.73
Rp0 1 110 10G
L0 110 120 0.13466n
Lm 120 130 3.8143p
L1 120 121 1.6403p
RL1 121 130 0.31297
L2 120 122 7.7601p
RL2 122 130 1.7044
L3 120 123 0.014596n
RL3 123 130 1.5684
CR 120 124 450.83p
LR 124 125 2.9486p
RR 125 130 29.185m
Rs 130 2 0.35827
****************************
.ends MSASE042SB5331_WNA01



* MSASE042SB5471_WNA01     SPICE MODEL  ( Standard Model )
*--------------------------------------------------------------------------------------------------------
* Model Generated by TAIYO YUDEN Corporation (http://www.ty-top.com)
* Version 1.0
* TAIYO YUDEN Control No. 220601
* Copyright(c) 2016 TAIYO YUDEN CO.,LTD. All Rights Reserved.
*--------------------------------------------------------------------------------------------------------
*
* Product Description (link to TY-COMPAS)
* https://ds.yuden.co.jp/TYCOMPAS/or/detail?pn=MSASE042SB5471KWNA01&u=M
*
* Products Name : Multilayer Ceramic Capacitors
*
* Characteristics :
*     Capacitance : 470 [pF] , Rated Voltage : 16 [V] , TCC : X5R
*     Case Size : 0.4 x 0.2 / 0.016 x 0.008 [mm/inch] , Thickness : 0.2 / 0.008 [mm/inch]
*     (Conditions: Temperature = 25 [degC] , DC Bias Voltage = 0 [V])
*
* Frequency Range : 100kHz - 3GHz
*
* External Node Assignments :
*
*  1  o---| |---o  2
*
*--------------------------------------------------------------------------------------------------------
.SubCkt MSASE042SB5471_WNA01 1 2
****************************
C0 1 110 401.55p
C2m 1 301 87.848p
C21 301 302 496.05p
Rc21 301 302 17.364Meg
C22 302 303 710.52p
Rc22 302 303 2.8437Meg
C23 303 304 590.98p
Rc23 303 304 605.83k
C24 304 305 482.3p
Rc24 304 305 132.48k
C25 305 306 435.22p
Rc25 305 306 29.413k
C26 306 307 149.33p
Rc26 306 307 10.906k
C27 307 308 122.91p
Rc27 307 308 1.5119k
C28 308 309 57.689p
Rc28 308 309 276.32
C29 309 110 0.018692p
Rc29 309 110 84.183
Rp0 1 110 10G
L0 110 120 0.12356n
Lm 120 130 3.1708p
L1 120 121 1.1433p
RL1 121 130 1.3779
L2 120 122 6.3172p
RL2 122 130 3.2478
L3 120 123 0.014545n
RL3 123 130 3.7438
CR 120 124 1516.2p
LR 124 125 0.14327p
RR 125 130 30.726m
Rs 130 2 0.33278
****************************
.ends MSASE042SB5471_WNA01



* MSASE042SB5681_WNA01     SPICE MODEL  ( Standard Model )
*--------------------------------------------------------------------------------------------------------
* Model Generated by TAIYO YUDEN Corporation (http://www.ty-top.com)
* Version 1.0
* TAIYO YUDEN Control No. 220601
* Copyright(c) 2016 TAIYO YUDEN CO.,LTD. All Rights Reserved.
*--------------------------------------------------------------------------------------------------------
*
* Product Description (link to TY-COMPAS)
* https://ds.yuden.co.jp/TYCOMPAS/or/detail?pn=MSASE042SB5681KWNA01&u=M
*
* Products Name : Multilayer Ceramic Capacitors
*
* Characteristics :
*     Capacitance : 680 [pF] , Rated Voltage : 16 [V] , TCC : X5R
*     Case Size : 0.4 x 0.2 / 0.016 x 0.008 [mm/inch] , Thickness : 0.2 / 0.008 [mm/inch]
*     (Conditions: Temperature = 25 [degC] , DC Bias Voltage = 0 [V])
*
* Frequency Range : 100kHz - 3GHz
*
* External Node Assignments :
*
*  1  o---| |---o  2
*
*--------------------------------------------------------------------------------------------------------
.SubCkt MSASE042SB5681_WNA01 1 2
****************************
C0 1 110 591.86p
C2m 1 301 92.774p
C21 301 302 747.61p
Rc21 301 302 17.438Meg
C22 302 303 540.51p
Rc22 302 303 4.8132Meg
C23 303 304 1017p
Rc23 303 304 561.59k
C24 304 305 785.26p
Rc24 304 305 256.89k
C25 305 306 507.67p
Rc25 305 306 87.422k
C26 306 307 323.2p
Rc26 306 307 18.701k
C27 307 308 179.74p
Rc27 307 308 2.8901k
C28 308 309 90.976p
Rc28 308 309 639.35
C29 309 110 0.054994p
Rc29 309 110 250.28
Rp0 1 110 10G
L0 110 120 0.12702n
Lm 120 130 0.010498n
L1 120 121 3.3968p
RL1 121 130 0.665
L2 120 122 0.015371n
RL2 122 130 2.2977
L3 120 123 0.015531n
RL3 123 130 1.8207
CR 120 124 328.97p
LR 124 125 1.8342p
RR 125 130 0.10859
Rs 130 2 0.26242
****************************
.ends MSASE042SB5681_WNA01



* MSASE042SB5102_WNA01     SPICE MODEL  ( Standard Model )
*--------------------------------------------------------------------------------------------------------
* Model Generated by TAIYO YUDEN Corporation (http://www.ty-top.com)
* Version 1.0
* TAIYO YUDEN Control No. 220601
* Copyright(c) 2016 TAIYO YUDEN CO.,LTD. All Rights Reserved.
*--------------------------------------------------------------------------------------------------------
*
* Product Description (link to TY-COMPAS)
* https://ds.yuden.co.jp/TYCOMPAS/or/detail?pn=MSASE042SB5102KWNA01&u=M
*
* Products Name : Multilayer Ceramic Capacitors
*
* Characteristics :
*     Capacitance : 1000 [pF] , Rated Voltage : 16 [V] , TCC : B / X5R
*     Case Size : 0.4 x 0.2 / 0.016 x 0.008 [mm/inch] , Thickness : 0.2 / 0.008 [mm/inch]
*     (Conditions: Temperature = 25 [degC] , DC Bias Voltage = 0 [V])
*
* Frequency Range : 100kHz - 3GHz
*
* External Node Assignments :
*
*  1  o---| |---o  2
*
*--------------------------------------------------------------------------------------------------------
.SubCkt MSASE042SB5102_WNA01 1 2
****************************
C0 1 110 921.74p
C2m 1 301 115.3p
C21 301 302 1665.3p
Rc21 301 302 4.8099Meg
C22 302 303 1143p
Rc22 302 303 3.0941Meg
C23 303 304 708.7p
Rc23 303 304 838.2k
C24 304 305 504.82p
Rc24 304 305 155.32k
C25 305 306 357.54p
Rc25 305 306 24.124k
C26 306 307 264.4p
Rc26 306 307 2.0602k
C27 307 308 112.3p
Rc27 307 308 588.79
C28 308 309 0.045805p
Rc28 308 309 283.3
C29 309 110 1.0242p
Rc29 309 110 7.9126
Rp0 1 110 10G
L0 110 120 0.10809n
Lm 120 130 0.019896n
L1 120 121 1.3994p
RL1 121 130 0.80023
L2 120 122 9.2169p
RL2 122 130 1.9159
L3 120 123 0.074742n
RL3 123 130 1.2855
CR 120 124 260.46p
LR 124 125 2.5332p
RR 125 130 0.22912
Rs 130 2 0.19269
****************************
.ends MSASE042SB5102_WNA01



* MSASE042SB5152_WNA01     SPICE MODEL  ( Standard Model )
*--------------------------------------------------------------------------------------------------------
* Model Generated by TAIYO YUDEN Corporation (http://www.ty-top.com)
* Version 1.0
* TAIYO YUDEN Control No. 220601
* Copyright(c) 2016 TAIYO YUDEN CO.,LTD. All Rights Reserved.
*--------------------------------------------------------------------------------------------------------
*
* Product Description (link to TY-COMPAS)
* https://ds.yuden.co.jp/TYCOMPAS/or/detail?pn=MSASE042SB5152KWNA01&u=M
*
* Products Name : Multilayer Ceramic Capacitors
*
* Characteristics :
*     Capacitance : 1500 [pF] , Rated Voltage : 16 [V] , TCC : X5R
*     Case Size : 0.4 x 0.2 / 0.016 x 0.008 [mm/inch] , Thickness : 0.2 / 0.008 [mm/inch]
*     (Conditions: Temperature = 25 [degC] , DC Bias Voltage = 0 [V])
*
* Frequency Range : 100kHz - 3GHz
*
* External Node Assignments :
*
*  1  o---| |---o  2
*
*--------------------------------------------------------------------------------------------------------
.SubCkt MSASE042SB5152_WNA01 1 2
****************************
C0 1 110 1325p
C2m 1 301 134.76p
Rc21 301 302 0.33498
C22 302 303 1069.9p
Rc22 302 303 1.5466k
C23 303 304 1123.1p
Rc23 303 304 1.3619k
C24 304 305 2438p
Rc24 304 305 512.69
C25 305 306 0.03939u
Rc25 305 306 19.661
C26 306 307 509.75p
Rc26 306 307 354.18
C27 307 308 240.2p
Rc27 307 308 72.16
C28 308 110 3.9823f
Rc28 308 110 69.193
Rp0 1 110 10G
L0 110 120 0.14986n
Lm 120 130 6.9984p
L1 120 121 3.9554p
RL1 121 130 0.28407
L2 120 122 4.5945p
RL2 122 130 0.33642
L3 120 123 0.015471n
RL3 123 130 1.0798
CR 120 124 195.56p
LR 124 125 0.010117n
RR 125 130 1.576m
Rs 130 2 0.24822
****************************
.ends MSASE042SB5152_WNA01



* MSASE042SB5222_WNA01     SPICE MODEL  ( Standard Model )
*--------------------------------------------------------------------------------------------------------
* Model Generated by TAIYO YUDEN Corporation (http://www.ty-top.com)
* Version 1.0
* TAIYO YUDEN Control No. 220601
* Copyright(c) 2016 TAIYO YUDEN CO.,LTD. All Rights Reserved.
*--------------------------------------------------------------------------------------------------------
*
* Product Description (link to TY-COMPAS)
* https://ds.yuden.co.jp/TYCOMPAS/or/detail?pn=MSASE042SB5222KWNA01&u=M
*
* Products Name : Multilayer Ceramic Capacitors
*
* Characteristics :
*     Capacitance : 2200 [pF] , Rated Voltage : 16 [V] , TCC : X5R
*     Case Size : 0.4 x 0.2 / 0.016 x 0.008 [mm/inch] , Thickness : 0.2 / 0.008 [mm/inch]
*     (Conditions: Temperature = 25 [degC] , DC Bias Voltage = 0 [V])
*
* Frequency Range : 100kHz - 3GHz
*
* External Node Assignments :
*
*  1  o---| |---o  2
*
*--------------------------------------------------------------------------------------------------------
.SubCkt MSASE042SB5222_WNA01 1 2
****************************
C0 1 110 1913.7p
C2m 1 301 157.4p
Rc21 301 302 2.2275
C22 302 303 0.16382u
Rc22 302 303 294.71
C23 303 304 0.029949u
Rc23 303 304 54.141
C24 304 305 1033.4p
Rc24 304 305 1.5148k
C25 305 306 2305.8p
Rc25 305 306 417.13
C26 306 307 620.72p
Rc26 306 307 336.11
C27 307 308 279.25p
Rc27 307 308 107.48
C28 308 110 0.027932p
Rc28 308 110 79.031
Rp0 1 110 10G
L0 110 120 0.14829n
Lm 120 130 9.4128p
L1 120 121 0.12574p
RL1 121 130 0.22921
L2 120 122 0.33948p
RL2 122 130 0.3621
L3 120 123 0.33935n
RL3 123 130 0.10479
CR 120 124 114.62p
LR 124 125 0.016538n
RR 125 130 1.375m
Rs 130 2 0.20144
****************************
.ends MSASE042SB5222_WNA01



* MSASE042SB5332_WNA01     SPICE MODEL  ( Standard Model )
*--------------------------------------------------------------------------------------------------------
* Model Generated by TAIYO YUDEN Corporation (http://www.ty-top.com)
* Version 1.0
* TAIYO YUDEN Control No. 220601
* Copyright(c) 2016 TAIYO YUDEN CO.,LTD. All Rights Reserved.
*--------------------------------------------------------------------------------------------------------
*
* Product Description (link to TY-COMPAS)
* https://ds.yuden.co.jp/TYCOMPAS/or/detail?pn=MSASE042SB5332KWNA01&u=M
*
* Products Name : Multilayer Ceramic Capacitors
*
* Characteristics :
*     Capacitance : 3300 [pF] , Rated Voltage : 16 [V] , TCC : X5R
*     Case Size : 0.4 x 0.2 / 0.016 x 0.008 [mm/inch] , Thickness : 0.2 / 0.008 [mm/inch]
*     (Conditions: Temperature = 25 [degC] , DC Bias Voltage = 0 [V])
*
* Frequency Range : 100kHz - 3GHz
*
* External Node Assignments :
*
*  1  o---| |---o  2
*
*--------------------------------------------------------------------------------------------------------
.SubCkt MSASE042SB5332_WNA01 1 2
****************************
C0 1 110 2691.9p
C2m 1 301 191.71p
C21 301 302 0.10767u
Rc21 301 302 235.58
C22 302 303 0.086146u
Rc22 302 303 120.63
C23 303 304 1860.6p
Rc23 303 304 733.78