*----------------------------------------------------------------------
* SPICE Netlist Generated by TDK Corporation
* Copyright(C) 2019 TDK Corporation.
* All Rights Reserved.
*----------------------------------------------------------------------
* TDK P/N: C3216C0G2A104J160AC (Multilayer Ceramic Chip Capacitor)
* Property: C=100nF
* Size(LxWxT): 3.2x1.6x1.6mm
* Model Type: Precise Model
* Model Generated on July 26, 2019
*----------------------------------------------------------------------
* Terms and conditions regarding TDK Simulation Models:
* 1)This simulation model is being provided solely for informational
*   purposes. Please refer to the specifications of the products in
*   terms of detailed characteristics of such products.
* 2)In no event shall TDK Corporation of any of its subsidiaries be
*   liable for any loss or damage arising, directly or indirectly,
*   from any information contained in this simulation model, including,
*   but not limited to loss or damages arising from any inaccuracies,
*   omissions or errors in connection with such information.
* 3)Any and all copyrights on this simulation model are owned by
*   TDK Corporation.  Duplication or redistribution of this simulation
*   model without prior written permission from TDK Corporation
*   is prohibited.
* 4)This simulation model is subject to any modification or change
*   without any prior notice.
* 5)Neither TDK Corporation nor any of its subsidiaries shall make any
*   warranty, express or implied, including but not limited to the
*   correctness, implied warranties of merchantability and fitness for
*   a particular purpose with respect to this simulation models.
* 6)The use of this simulation model shall be deemed to have consented
*   to the terms and conditions hereof.
*----------------------------------------------------------------------
* External Node Assignments:
*
*  n1 ---| |--- n2
*
*----------------------------------------------------------------------
* Applicable Conditions:
*   Temperature = 25 degC
*   DC Bias Voltage = 0 V
*   Small Signal Operation
*----------------------------------------------------------------------
.SUBCKT C3216C0G2A104J160AC_p n1 n2
C1 n1 11 1.00000000E-07
L1 11 12 7.19526917E-10
L2 12 13 8.94370988E-11
L3 13 14 2.03161007E-10
L4 14 15 4.93442976E-10
L5 15 16 1.46247301E-09
R1 n2 12 1.05558873E-02
R2 n2 13 4.88169907E-03
R3 n2 14 2.25760139E-03
R4 n2 15 1.04405535E-03
R5 n2 16 4.82836156E-04
R6 n1 11 5.00000000E+09
.ENDS C3216C0G2A104J160AC_p
*----------------------------------------------------------------------
