*
* This spice model was created using the Altium Spice Model Wizard
* Created: 16:22 on 18 February, 2023
*
* Component Name: YAGEO_CC1206
*
.MODEL YAGEO_CC1206 C
+(
+        DEFW = 1.6e-6
+)
*
* Spice model YAGEO_CC1206 has been assigned the following parameters:
*
*       DEFW: Default device width.............(Unit: meters)