*
* This spice model was created using the Altium Spice Model Wizard
* Created: 16:08 on 18 February, 2023
*
* Component Name: YAGEO_CC0603
*
.MODEL YAGEO_CC0603 C
+(
+        DEFW = 0.8e-6
+)
*
* Spice model YAGEO_CC0603 has been assigned the following parameters:
*
*       DEFW: Default device width.............(Unit: meters)
