*
* This spice model was created using the Altium Spice Model Wizard
* Created: 16:21 on 18 February, 2023
*
* Component Name: YAGEO_CC0805
*
.MODEL YAGEO_CC0805 C
+(
+        DEFW = 1.25e-6
+)
*
* Spice model YAGEO_CC0805 has been assigned the following parameters:
*
*       DEFW: Default device width.............(Unit: meters)