*----------------------------------------------------------------------
* SPICE Model generated by Murata Manufacturing Co., Ltd.
* Copyright(C) Murata Manufacturing Co., Ltd.
* MURATA P/N : LQG15HS4N3B02
* Property : L = 4.3[nH]
*----------------------------------------------------------------------
* Applicable Conditions:
*   Frequency Range = 50MHz - 20GHz
*   Temperature = 25 degC
*   DC Bias Current = 0 A
*   Small Signal Operation
*----------------------------------------------------------------------
.SUBCKT LQG15HS4N3B02 port1 port2
C1 port1 port2 3.64e-16
L2 port1 1 5.57e-9
R2 1 port2 7.84e-2
R3 port1 port2 7.15e+3
L4 port1 2 8.84e-8
R4 2 port2 274
L5 port1 3 3.53e-8
R5 3 port2 11.1
L6 port1 4 4.27e-8
R6 4 port2 2.83
L7 port1 5 6.70e-8
C7 5 6 1.94e-15
R7 6 port2 126
L8 port1 7 6.25e-10
C8 7 8 1.15e-13
R8 8 port2 1.70
.ENDS LQG15HS4N3B02
*----------------------------------------------------------------------
