*----------------------------------------------------------------------
* SPICE Model generated by Murata Manufacturing Co., Ltd.
* Copyright(C) Murata Manufacturing Co., Ltd.
* MURATA P/N : DFE201612E-R24M
* Property : L = 0.24uH
*----------------------------------------------------------------------
* Applicable Conditions:
*   Frequency Range = 100000Hz - 1000000000Hz
*   Temperature = 25 degC
*   DC Bias Current = 0 A
*   Small Signal Operation
*----------------------------------------------------------------------
.SUBCKT DFE201612E-R24M port1 port2
C1 port1 port2 2.63e-12
L2 port1 1 2.50e-7
R2 1 port2 1.28e-2
R3 port1 port2 5.13e+2
L4 port1 2 1.41e-6
R4 2 port2 3.17e+2
L5 port1 3 5.60e-6
R5 3 port2 1.91e+2
C6 port1 4 1.29e-12
L6 4 5 4.61e-9
R6 5 port2 4.90e+1
.ENDS DFE201612E-R24M
*----------------------------------------------------------------------
