*----------------------------------------------------------------------
* SPICE Model generated by Murata Manufacturing Co., Ltd.
* Copyright(C) Murata Manufacturing Co., Ltd.
* MURATA P/N : LQG15HN2N0C02
* Property : L = 2[nH]
*----------------------------------------------------------------------
* Applicable Conditions:
*   Frequency Range = 50MHz - 20GHz
*   Temperature = 25 degC
*   DC Bias Current = 0 A
*   Small Signal Operation
*----------------------------------------------------------------------
.SUBCKT LQG15HN2N0C02 port1 port2
C1 port1 port2 1.18e-14
L2 port1 1 1.81e-9
R2 1 port2 5.80e-2
R3 port1 port2 4.04e+3
L4 port1 2 6.91e-8
R4 2 port2 282
L5 port1 3 2.18e-8
R5 3 port2 14.0
L6 port1 4 7.27e-8
R6 4 port2 16.4
L7 port1 5 6.10e-10
C7 5 6 1.05e-13
R7 6 port2 8.64e-2
L8 port1 7 6.66e-8
C8 7 8 1.84e-15
R8 8 port2 193
.ENDS LQG15HN2N0C02
*----------------------------------------------------------------------
