*----------------------------------------------------------------------
* SPICE Model generated by Murata Manufacturing Co., Ltd.
* Copyright(C) Murata Manufacturing Co., Ltd.
* MURATA P/N : DFE252010P-1R0M
* Property : L = 1.0uH
*----------------------------------------------------------------------
* Applicable Conditions:
*   Frequency Range = 100000Hz - 1000000000Hz
*   Temperature = 25 degC
*   DC Bias Current = 0 A
*   Small Signal Operation
*----------------------------------------------------------------------
.SUBCKT DFE252010P-1R0M port1 port2
C1 port1 port2 2.96e-12
L2 port1 1 1.01e-6
R2 1 port2 4.49e-2
R3 port1 port2 2.29e+3
L4 port1 2 3.71e-5
R4 2 port2 5.04e+2
L5 port1 3 4.90e-6
R5 3 port2 9.61e+2
C6 port1 4 3.16e-12
L6 4 5 3.43e-9
R6 5 port2 2.53e+1
.ENDS DFE252010P-1R0M
*----------------------------------------------------------------------
