*----------------------------------------------------------------------
* SPICE Model generated by Murata Manufacturing Co., Ltd.
* Copyright(C) Murata Manufacturing Co., Ltd.
* MURATA P/N : DFE201612E-1R0M
* Property : L = 1.0uH
*----------------------------------------------------------------------
* Applicable Conditions:
*   Frequency Range = 100000Hz - 1000000000Hz
*   Temperature = 25 degC
*   DC Bias Current = 0 A
*   Small Signal Operation
*----------------------------------------------------------------------
.SUBCKT DFE201612E-1R0M port1 port2
C1 port1 port2 3.26e-12
L2 port1 1 9.76e-7
R2 1 port2 4.08e-2
R3 port1 port2 2.00e+3
L4 port1 2 5.80e-6
R4 2 port2 1.04e+3
L5 port1 3 2.59e-5
R5 3 port2 4.43e+2
C6 port1 4 2.60e-12
L6 4 5 3.02e-9
R6 5 port2 2.39e+1
.ENDS DFE201612E-1R0M
*----------------------------------------------------------------------
