* LSQPA251818T4R7     SPICE MODEL  ( General Type )
*--------------------------------------------------------------------------------------------------------
* Model Generated by TAIYO YUDEN Corporation (http://www.ty-top.com)
* Version 4.0
* TAIYO YUDEN Control No. 180123NI43EB-FBB
* Copyright(c) 2007 TAIYO YUDEN CO.,LTD. All Rights Reserved.
*--------------------------------------------------------------------------------------------------------
*
* Product Description (link to TY-COMPAS)
* https://ds.yuden.co.jp/TYCOMPAS/or/detail?pn=LSQPA251818T4R7M&u=M
*
* Products Name : Inductors
*
* Characteristics :
*     Inductance : 4.7 uH , SRF(min) : 41 MHz , DC Resistance(max) : 0.26 Ohm
*     Rated Current : Saturation :680 mA , Temp Rise : 920 mA
*     Case Size : 2.5 x 1.8 / 0.098 x 0.071 [mm/inch] , Thickness : 1.8 / 0.071 [mm/inch]
*     (Conditions: Temperature = 25 degC , DC Bias Current/Voltage = 0A / 0V)
*
* External Node Assignments :
*
*  1  o---GGG---o  2
*
*--------------------------------------------------------------------------------------------------------
.SubCkt LSQPA251818T4R7 1 2
****************************
Rdc 1 101 0.2
L0 101 111 4.2283u
L1 111 121 1.4078u
R1 111 121 5.3923
L2 121 131 0.78732u
R2 121 131 18.102
L3 131 2 0.69456u
R3 131 2 93.04
Rp 101 2 4.2285k
Cp 101 2 2.8667p
****************************
.ends LSQPA251818T4R7
