
============= SPICE Model =================
**************************************
*      Model Generated by MODPEX     *
*Copyright(c) Symmetry Design Systems*
*         All Rights Reserved        *
*    UNPUBLISHED LICENSED SOFTWARE   *
*   Contains Proprietary Information *
*      Which is The Property of      *
*     SYMMETRY OR ITS LICENSORS      *
*Commercial Use or Resale Restricted *
*   by Symmetry License Agreement    *
**************************************
* Model generated on Jul 21, 12
* MODEL FORMAT: PSpice
.MODEL QMMBTA06LT1/ON npn
+IS=7.08104e-14 BF=895.434 NF=0.982088 VAF=10
+IKF=0.12859 ISE=2.10147e-14 NE=1.28133 BR=89.5434
+NR=1.5 VAR=1.39756 IKR=1.2859 ISC=2.10147e-14
+NC=1.02259 RB=3.33018 IRB=0.1 RBM=0.1
+RE=0.0001 RC=0.001 XTB=0.1 XTI=4
+EG=1.206 CJE=7.75263e-11 VJE=0.616699 MJE=0.328978
+TF=2.93023e-10 XTF=1000 VTF=639.614 ITF=4.90114
+CJC=8.90416e-12 VJC=0.590719 MJC=0.347015 XCJC=0.938693
+FC=0.8 CJS=0 VJS=0.75 MJS=0.5
+TR=9.57121e-06 PTF=0 KF=0 AF=1

============= Model template =================
q%p %tC %tB %tE %m
