* Q2SB1198K PNP BJT model
* Date: 2006/12/15
.MODEL Q2SB1198K PNP
+ IS=270.00E-15
+ BF=202.53
+ VAF=25
+ IKF=4.9986
+ ISE=270.00E-15
+ NE=1.5975
+ BR=6.4472
+ VAR=100
+ IKR=.718
+ ISC=8.7772E-12
+ NC=1.5323
+ NK=1.2944
+ RE=.15
+ RB=1.5052
+ RC=.12666
+ CJE=153.08E-12
+ MJE=.50256
+ CJC=41.583E-12
+ MJC=.46676
+ TF=678.31E-12
+ XTF=25.767
+ VTF=53.412
+ ITF=10.004
+ TR=134.09E-9
+ XTB=1.5000
