* Q2SD1782K NPN BJT model
* Date: 2006/12/15
.MODEL Q2SD1782K NPN
+ IS=250.00E-15
+ BF=260.39
+ VAF=100
+ IKF=2
+ ISE=250.00E-15
+ NE=1.4602
+ BR=34.771
+ VAR=100
+ IKR=1.9204
+ ISC=32.139E-12
+ NC=1.4582
+ NK=.95449
+ RE=.11
+ RB=2.2167
+ RC=.20594
+ CJE=140.16E-12
+ MJE=.34085
+ CJC=22.788E-12
+ MJC=.41739
+ TF=993.07E-12
+ XTF=116.12
+ VTF=18.131
+ ITF=28.198
+ TR=108.22E-9
+ XTB=1.5000
