* RQ5E030AJ NMOSFET model
* PKG: SOT-346T,Vdss=30V,Id=3A
* Rds(on)=57mĦ,Qg=2.1nC
* Model Generated by ROHM
* All Rights Reserved
* Commercial Use or
* Resale Restricted
* Date: 2016/04/25
******************D G S
.SUBCKT RQ5E030AJ 1 2 3
M1   11 22 3 3 MOS_N
D1         3 1 DDS
R1        1 11 RTH 32.1m
D2       22 11 DDG
R2        2 22 13.4
.MODEL MOS_N NMOS
+ LEVEL=3
+ L=2.0000E-6
+ W=1
+ KP=39.86E-6
+ RS=10.000E-3
+ RD=0
+ VTO=1.1851
+ RDS=30.000E6
+ TOX=2.0000E-6
+ CGSO=190p
+ CGDO=17p
+ CBD=0
+ RG=0
+ N=2
+ RB=1.0000E-3
+ GAMMA=0.2
+ ETA=0.0008
+ KAPPA=0
+ NFS=11G
.MODEL DDS D
+ IS=1.1337E-15
+ N=.93631
+ RS=100.00E-6
+ IKF=798
+ CJO=81.498E-12
+ M=.60932
+ VJ=.5015
+ BV=30
+ TT=3.8n
.MODEL DDG D
+ CJO=107.47E-12
+ M=1.1144
+ VJ=.50168
+ N=10000
+ FC=-1.5
+ T_ABS=25
.MODEL RTH RES
+ TC1=0.0055
+ TC2=0.000005
.ENDS RQ5E030AJ
