*********************************************************************
*  (C) Copyright 2014-2018 Toshiba Electronic Devices & Storage Corporation
*  Date                 : 20/10/2014
*  File Name            : SSM6J422TU.lib
*  Part Number          : SSM6J422TU
*  Parameter Ver.       : Ver.1
*  Simulator            : PSpice
*  Model Call Name      : PMOS_SSM6J422TU
*  TNOM                 : 25 degree
*  Pin Assign:       1=Drain 2=Gate 3=Source
*
* Operation of this model has been verified only on the OrCAD.
*********************************************************************
.SUBCKT PMOS_SSM6J422TU 1 2 3
M0 1 22 3 3
+ smsmosfet
+ L = 5E-006
+ W = 0.35
+ AD = 3.5e-07
+ AS = 3.5e-07
+ PD = 0.35
+ PS = 0.35
D0 1 3
+ DDS1
D1 1 3
+ DDS2
D2 10 2
+ DGS1
D3 10 3
+ DGS2
R1 10 3 1E+009
R2 10 2 1E+009
RG 2 22 13.6
.MODEL smsmosfet PMOS
+ LEVEL = 7
+ VERSION = 3.3
+ MOBMOD = 1
+ CAPMOD = 3
+ NOIMOD = 1
+ TOX = 1.5E-008
+ XJ = 1.5E-007
+ NCH = 1.7E+017
+ NGATE = 0
+ RSH = 0
+ TNOM = 25
+ VTH0 = -0.835
+ VOFF = -0.055
+ NFACTOR = 1.25
+ U0 = 3405.69
+ K1 = 0.53
+ K2 = -0.0186
+ K3 = 80
+ K3B = 0
+ W0 = 2.5E-006
+ NLX = 1.74E-007
+ DVT0 = 2.2
+ DVT1 = 0.53
+ DVT2 = -0.032
+ DVT0W = 0
+ DVT1W = 5.3E+006
+ DVT2W = -0.032
+ DWG = 0
+ DWB = 0
+ UA = 2.7131e-12
+ UB = 5.87E-019
+ UC = -4.65E-011
+ VSAT = 96270.3572
+ A0 = 0.30598
+ AGS = 0.14503
+ B0 = 0
+ B1 = 0
+ KETA = -0.047
+ A1 = 0
+ A2 = 1
+ DELTA = 0.010521
+ RDSW = 10749.2
+ PRWG = 0
+ PRWB = 0
+ WR = 1
+ CDSC = 2.4E-004
+ CDSCD = 0
+ CDSCB = 0
+ CIT = 0
+ ETA0 = 0.08
+ ETAB = -0.07
+ DSUB = 0.56
+ PCLM = 18.4962
+ PDIBLC1 = 0.39
+ PDIBLC2 = 0.10594
+ PDIBLCB = 0
+ DROUT = 0.56
+ PSCBE1 = 4.24E+008
+ PSCBE2 = 1E-009
+ PVAG = 0
+ ALPHA0 = 0
+ ALPHA1 = 0
+ BETA0 = 30
+ NJ = 1
+ JS = 7.872e-07
+ XPART = 0
+ CGSO = 4.8931e-10
+ CGDO = 2.96e-10
+ CGBO = 1E-012
+ CGDL = 5.4062e-09
+ CGSL = 7.8077e-12
+ CKAPPA = 0.25063
+ CF = 0
+ CLC = 1E-007
+ CLE = 0.6
+ VOFFCV = 0
+ NOFF = 1
+ DLC = 0
+ ACDE = 1
+ MOIN = 15
+ CJ = 9.1532e-08
+ CJSW = 5E-010
+ CJSWG = 5E-010
+ PB = 1.0305
+ PBSW = 1
+ PBSWG = 1
+ MJ = 0.49619
+ MJSW = 0.33
+ MJSWG = 0.33
+ AF = 1
+ EF = 1
+ KF = 0
+ UTE = -0.48
+ KT1 = -0.32
+ KT1L = 0
+ KT2 = 0.022
+ UA1 = 4.31E-009
+ UB1 = -7.61E-018
+ UC1 = -5.6E-011
+ AT = 3.3E+004
+ PRT = 12300
+ XTI = 3
+ TCJ = 0
+ TPB = 0
+ TCJSW = 0
+ TPBSW = 0
+ TCJSWG = 0
+ TPBSWG = 0
+ DWC = 0.098311
.MODEL DDS1 D
+ TNOM = 25
+ IS = 3.6845e-09
+ RS = 0.12071
+ N = 1.4627
+ CJO = 3.9985e-14
+ VJ = 0.70165
+ M = 0.56677
+ XTI = 3
+ BV = 20
+ IBV = 0.001
.MODEL DDS2 D
+ TNOM = 25
+ IS = 3.6845e-09
+ RS = 0.12071
+ N = 1.4627
+ CJO = 1.1658e-13
+ VJ = 0.55173
+ M = 0.11544
+ XTI = 3
.MODEL DGS1 D
+ TNOM = 25
+ IS = 1E-014
.MODEL DGS2 D
+ TNOM = 25
+ IS = 1E-014
.ENDS


