*
* This spice model was created using the Altium Spice Model Wizard
* Created: 19:50 on 22 February, 2023
*
* Component Name: 1N4148
*
.MODEL 1N4148 D
+(
+     IS = 1.0000E-0009
+      N = 1.6784
+     RS = 0.9530
+    CJO = 1.0201E-0012
+     VJ = 2.4600
+      M = 0.0509
+     BV = 75
+    IBV = 18E-9
+     TT = 5.7600E-9
+)

* Spice model 1N4148 has been assigned the following parameters:

* Forward-Bias Diode Current Parameters
*     IS: Saturation Current..................(Unit: A)
*      N: Emission Coefficient
*     RS: Ohmic Resistance....................(Unit: Ohm)

* Reverse-Bias Junction Capacitance Parameters
*    CJO: Zero-Bias Junction Capacitance......(Unit: F)
*     VJ: Junction Potential..................(Unit: V)
*      M: Grading Coefficient

* Reverse-Recovery Time Of The Diode Parameters
*     TT: Transit-Time........................(Unit: Sec)

* Reverse-Breakdown Diode Current Parameters
*     BV: Reverse Breakdown Voltage...........(Unit: V)
*    IBV: Current at Breakdown Voltage........(Unit: A)
