*
* This spice model was created using the Altium Spice Model Wizard
* Created: 09:45 on 23 February, 2023
*
* Component Name: PTVS4V5D1BLYL
*
.MODEL PTVS4V5D1BLYL D
+(
+    CJO = 6.2332E-0011
+     VJ = 2.5500
+      M = 0.3985
+     BV = 4.7
+    IBV = 50E-9
+     TT = 1.0800E-8
+)

* Spice model PTVS4V5D1BLYL has been assigned the following parameters:

* Reverse-Bias Junction Capacitance Parameters
*    CJO: Zero-Bias Junction Capacitance......(Unit: F)
*     VJ: Junction Potential..................(Unit: V)
*      M: Grading Coefficient

* Reverse-Recovery Time Of The Diode Parameters
*     TT: Transit-Time........................(Unit: Sec)

* Reverse-Breakdown Diode Current Parameters
*     BV: Reverse Breakdown Voltage...........(Unit: V)
*    IBV: Current at Breakdown Voltage........(Unit: A)
