*
* This spice model was created using the Altium Spice Model Wizard
* Created: 10:28 on 23 February, 2023
*
* Component Name: ESD7351P2T5G
*
.MODEL ESD7351P2T5G D
+(
+     IS = 2.0637E-0012
+      N = 46.3567
+     RS = -1166666666.6667
+    CJO = 1.1022E-0012
+     VJ = 0.1000
+      M = 0.5000
+     BV = 3.3
+    IBV = 50E-9
+     TT = 1.4400E-9
+)

* Spice model ESD7351P2T5G has been assigned the following parameters:

* Forward-Bias Diode Current Parameters
*     IS: Saturation Current..................(Unit: A)
*      N: Emission Coefficient
*     RS: Ohmic Resistance....................(Unit: Ohm)

* Reverse-Bias Junction Capacitance Parameters
*    CJO: Zero-Bias Junction Capacitance......(Unit: F)
*     VJ: Junction Potential..................(Unit: V)
*      M: Grading Coefficient

* Reverse-Recovery Time Of The Diode Parameters
*     TT: Transit-Time........................(Unit: Sec)

* Reverse-Breakdown Diode Current Parameters
*     BV: Reverse Breakdown Voltage...........(Unit: V)
*    IBV: Current at Breakdown Voltage........(Unit: A)
