*
* This spice model was created using the Altium Spice Model Wizard
* Created: 10:33 on 23 February, 2023
*
* Component Name: NSPU3051N2T5G
*
.MODEL NSPU3051N2T5G D
+(
+     IS = 7.7426E-0012
+      N = 15.1059
+     RS = -1100.0000
+    CJO = 9.2668E-0011
+     VJ = 1.2500
+      M = 0.2692
+     BV = 5.5
+    IBV = 0.1E-6
+     TT = 1.1520E-5
+)

* Spice model NSPU3051N2T5G has been assigned the following parameters:

* Forward-Bias Diode Current Parameters
*     IS: Saturation Current..................(Unit: A)
*      N: Emission Coefficient
*     RS: Ohmic Resistance....................(Unit: Ohm)

* Reverse-Bias Junction Capacitance Parameters
*    CJO: Zero-Bias Junction Capacitance......(Unit: F)
*     VJ: Junction Potential..................(Unit: V)
*      M: Grading Coefficient

* Reverse-Recovery Time Of The Diode Parameters
*     TT: Transit-Time........................(Unit: Sec)

* Reverse-Breakdown Diode Current Parameters
*     BV: Reverse Breakdown Voltage...........(Unit: V)
*    IBV: Current at Breakdown Voltage........(Unit: A)
