*
* This spice model was created using the Altium Spice Model Wizard
* Created: 19:35 on 22 February, 2023
*
* Component Name: S1M
*
.MODEL S1M D
+(
+     IS = 1.5048E-0007
+      N = 2.3782
+     RS = 0.0258
+    CJO = 2.2002E-0011
+     VJ = 0.1000
+      M = 0.2323
+     BV = 1000
+    IBV = 1E-6
+     TT = 2.5920E-6
+)

* Spice model S1M has been assigned the following parameters:

* Forward-Bias Diode Current Parameters
*     IS: Saturation Current..................(Unit: A)
*      N: Emission Coefficient
*     RS: Ohmic Resistance....................(Unit: Ohm)

* Reverse-Bias Junction Capacitance Parameters
*    CJO: Zero-Bias Junction Capacitance......(Unit: F)
*     VJ: Junction Potential..................(Unit: V)
*      M: Grading Coefficient

* Reverse-Recovery Time Of The Diode Parameters
*     TT: Transit-Time........................(Unit: Sec)

* Reverse-Breakdown Diode Current Parameters
*     BV: Reverse Breakdown Voltage...........(Unit: V)
*    IBV: Current at Breakdown Voltage........(Unit: A)
