* Panasonic EZJ_P0V6R8GA SPICE model
.SUBCKT EZJ_P0V6R8GA 1 2
D1 1 3 VAR
D2 3 2 VAR
C1 1 3 100e-12
C2 3 2 100e-12
R1 3 4 0.4
R2 4 2 0.4

.MODEL VAR D
+(
+    CJO = 100e-12
+    IS = 1e-9
+)

.ENDS
