* TDK AVRL101E1R1NTB SPICE model
.SUBCKT AVRL101E1R1NTB 1 2
D1 1 3 VAR
D2 3 2 VAR
C1 1 3 1.1e-12
C2 3 2 1.1e-12
R1 3 4 0.4
R2 4 2 0.4

.MODEL VAR D
+(
+    CJO = 1.1e-12
+    IS = 1e-14
+)

.ENDS
