*
* This spice model was created using the Altium Spice Model Wizard
* Created: 12:56 on 23 February, 2023
*
* Edited by Karl Asseily to create the multi-component subcircuit
*
*
* Component Name: TPD4E05U06DQAR
*
* Pin 1 : Anode 1
* Pin 2 : Anode 2
* Pin 3 : Ground
* Pin 4 : Anode 3
* Pin 5 : Anode 4
* Pin 8 : Ground
* (Internal node K1 : Common Cathode for D1+ D1- D2+ and D2-)
* (Internal node A0 : Common Anode to Ground)
*
.SUBCKT TPD4E05U06DQAR A1 A2 A3 A4 A0

D1 A1 K1 tvs
D2 A2 K1 tvs
D3 A3 K1 tvs
D4 A4 K1 tvs
D5 A0 A1 tvs
D6 A0 A2 tvs
D7 A0 A3 tvs
D8 A0 A4 tvs
D9 A0 K1 tvs

.MODEL tvs D
+(
+     IS = 2.0394E-0015
+      N = 23.0869
+     RS = -11.9068
+    CJO = 2.5520E-0012
+     VJ = 0.1000
+      M = 0.5000
+     BV = 6.5
+    IBV = 10E-9
+     TT = 8.6400E-9
+)

.ENDS TPD4E05U06DQAR

* Spice model TPD4E05U06DQAR has been assigned the following parameters:

* Forward-Bias Diode Current Parameters
*     IS: Saturation Current..................(Unit: A)
*      N: Emission Coefficient
*     RS: Ohmic Resistance....................(Unit: Ohm)

* Reverse-Bias Junction Capacitance Parameters
*    CJO: Zero-Bias Junction Capacitance......(Unit: F)
*     VJ: Junction Potential..................(Unit: V)
*      M: Grading Coefficient

* Reverse-Recovery Time Of The Diode Parameters
*     TT: Transit-Time........................(Unit: Sec)

* Reverse-Breakdown Diode Current Parameters
*     BV: Reverse Breakdown Voltage...........(Unit: V)
*    IBV: Current at Breakdown Voltage........(Unit: A)
