*
* This spice model was created using the Altium Spice Model Wizard
* Created: 12:43 on 23 February, 2023
*
* Edited by Karl Asseily to create the multi-component subcircuit
*
*
* Component Name: TPD4E02B04QDQARQ1
*
* Pin 1 : Anode 1
* Pin 2 : Anode 2
* Pin 3 : Ground
* Pin 4 : Anode 3
* Pin 5 : Anode 4
* Pin 8 : Ground
* (Internal node K1 : Common Cathode for IO1)
* (Internal node K2 : Common Cathode for IO2)
* (Internal node K3 : Common Cathode for IO3)
* (Internal node K4 : Common Cathode for IO4)
* (Internal node A0 : Common Anode to Ground)
*
.SUBCKT TPD4E02B04QDQARQ1 A1 A2 A3 A4 A0

D1 A1 K1 tvs
D2 K1 A0 tvs
D3 A2 K2 tvs
D4 K2 A0 tvs
D5 A3 K3 tvs
D6 K3 A0 tvs
D7 A4 K4 tvs
D8 K4 A0 tvs

.MODEL tvs D
+(
+     IS = 3.4200E-0011
+      N = 15.0331
+     RS = 0.2669
+    CJO = 3.2406E-0013
+     VJ = 12.8200
+      M = 0.7240
+     BV = 5.5
+    IBV = 10E-9
+     TT = 1.2960E-5
+)

.ENDS TPD4E02B04QDQARQ1

* Spice model TPD4E02B04QDQARQ1 has been assigned the following parameters:

* Forward-Bias Diode Current Parameters
*     IS: Saturation Current..................(Unit: A)
*      N: Emission Coefficient
*     RS: Ohmic Resistance....................(Unit: Ohm)

* Reverse-Bias Junction Capacitance Parameters
*    CJO: Zero-Bias Junction Capacitance......(Unit: F)
*     VJ: Junction Potential..................(Unit: V)
*      M: Grading Coefficient

* Reverse-Recovery Time Of The Diode Parameters
*     TT: Transit-Time........................(Unit: Sec)

* Reverse-Breakdown Diode Current Parameters
*     BV: Reverse Breakdown Voltage...........(Unit: V)
*    IBV: Current at Breakdown Voltage........(Unit: A)
