*
* This spice model was created using the Altium Spice Model Wizard
* Created: 14:23 on 21 February, 2023
*
* Component Name: LITEON_LTSTC191KSKT
*
.MODEL LITEON_LTSTC191KSKT D
+(
+     IS = 1.0772E-0064
+      N = 0.5035
+     RS = 5.4624
+)

* Spice model LITEON_LTSTC191KSKT has been assigned the following parameters:

* Forward-Bias Diode Current Parameters
*     IS: Saturation Current..................(Unit: A)
*      N: Emission Coefficient
*     RS: Ohmic Resistance....................(Unit: Ohm)
