*
* This spice model was created using the Altium Spice Model Wizard
* Created: 14:33 on 21 February, 2023
*
* Component Name: OSRAM_LHR974LP1
*
.MODEL OSRAM_LHR974LP1 D
+(
+     IS = 1.0000E-0018
+      N = 1.6784
+     RS = 0.3983
+)

* Spice model OSRAM_LHR974LP1 has been assigned the following parameters:

* Forward-Bias Diode Current Parameters
*     IS: Saturation Current..................(Unit: A)
*      N: Emission Coefficient
*     RS: Ohmic Resistance....................(Unit: Ohm)
