*
* This spice model was created using the Altium Spice Model Wizard
* Created: 06:39 on 23 February, 2023
*
* Component Name: XLDGK12W
*
.MODEL XLDGK12W D
+(
+     IS = 1.0240E-0010
+      N = 6.0032
+     RS = 17.7200
+     CJO = 45E-0012
+     BV = 5
+     IBV = 50E-6
+)

* Spice model XLDGK12W has been assigned the following parameters:

* Forward-Bias Diode Current Parameters
*     IS: Saturation Current..................(Unit: A)
*      N: Emission Coefficient
*     RS: Ohmic Resistance....................(Unit: Ohm)

* Reverse-Bias Junction Capacitance Parameters
*    CJO: Zero-Bias Junction Capacitance......(Unit: F)

* Reverse-Breakdown Diode Current Parameters
*     BV: Reverse Breakdown Voltage...........(Unit: V)
*    IBV: Reverse Breakdown  Current..........(Unit: A)
