*
* This spice model was created using the Altium Spice Model Wizard
* Created: 06:55 on 23 February, 2023
*
* Component Name: XLM2MR12W
*
.MODEL XLM2MR12W D
+(
+     IS = 7.8594E-0015
+      N = 2.5695
+     RS = 8.5960
+     CJO = 45E-0012
+     BV = 5
+    IBV = 10e-6
+)

* Spice model XLM2MR12W has been assigned the following parameters:

* Forward-Bias Diode Current Parameters
*     IS: Saturation Current..................(Unit: A)
*      N: Emission Coefficient
*     RS: Ohmic Resistance....................(Unit: Ohm)

* Reverse-Bias Junction Capacitance Parameters
*    CJO: Zero-Bias Junction Capacitance......(Unit: F)

* Reverse-Breakdown Diode Current Parameters
*     BV: Reverse Breakdown Voltage...........(Unit: V)
*    IBV: Current at Breakdown Voltage........(Unit: A)
