*
* This spice model was created using the Altium Spice Model Wizard
* Created: 14:39 on 21 February, 2023
*
* Component Name: WURTH_150060GS75000
*
.MODEL WURTH_150060GS75000 D
+(
+     IS = 5.4264E-0010
+      N = 6.9985
+     RS = 4.4834
+)

* Spice model WURTH_150060GS75000 has been assigned the following parameters:

* Forward-Bias Diode Current Parameters
*     IS: Saturation Current..................(Unit: A)
*      N: Emission Coefficient
*     RS: Ohmic Resistance....................(Unit: Ohm)
