* Port
* (1)o--CCCCC--o(6)
*       =====
* (2)o--CCCCC--o(5)
*
*        anode cathode
* node:    3      1
* node:    4      2

.SUBCKT EMI8141MUTAG 400 499 500 599 3 4
* IN1=400 , OUT1=499 , IN2=500 , OUT2=599 , ESD1A=3 , ESD2A=4
L101 410 420 2.517e-7
L201 420 430 2.339e-9
L301 430 440 1.180e-8
L401 440 450 3.170e-9
L501 450 460 9.254e-10
L402 460 470 3.170e-9
L302 470 480 1.180e-8
L202 480 490 2.339e-9
L102 490 495 2.517e-7
L103 510 520 2.517e-7
L203 520 530 2.339e-9
L303 530 540 1.180e-8
L403 540 550 3.170e-9
L503 550 560 9.254e-10
L404 560 570 3.170e-9
L304 570 580 1.180e-8
L204 580 590 2.339e-9
L104 590 595 2.517e-7
K101 L101 L103 9.977e-1
K201 L201 L203 2.172e-1
K301 L301 L303 9.157e-1
K401 L401 L403 5.479e-1
K402 L402 L404 5.479e-1
K302 L302 L304 9.157e-1
K202 L202 L204 2.172e-1
K102 L102 L104 9.977e-1
R601 400 410 2.450
R101 410 420 2502
R201 420 430 9.823
R301 430 440 179.0
R401 440 450 203.9
R501 450 460 954.3
R402 460 470 203.9
R302 470 480 179.0
R202 480 490 9.823
R102 490 495 2502
R602 495 499 2.450
R603 500 510 2.450
R103 510 520 2502
R203 520 530 9.823
R303 530 540 179.0
R403 540 550 203.9
R503 550 560 954.3
R404 560 570 203.9
R304 570 580 179.0
R204 580 590 9.823
R104 590 595 2502
R604 595 599 2.450
C101 410 420 1.420e-13
C201 420 430 1.152e-15
C301 430 440 9.677e-14
C401 440 450 3.791e-15
C402 460 470 3.791e-15
C302 470 480 9.677e-14
C202 480 490 1.152e-15
C102 490 495 1.420e-13
C103 510 520 1.420e-13
C203 520 530 1.152e-15
C303 530 540 9.677e-14
C403 540 550 3.791e-15
C404 560 570 3.791e-15
C304 570 580 9.677e-14
C204 580 590 1.152e-15
C104 590 595 1.420e-13
C501 410 510 1.619e-13
C601 420 520 4.306e-14
C701 430 530 2.228e-13
C801 440 540 3.248e-13
C901 450 550 3.962e-13
C902 460 560 3.962e-13
C802 470 570 3.248e-13
C702 480 580 2.228e-13
C602 490 590 4.306e-14
C502 495 595 1.619e-13
L601 410 110 6.325e-12
C111 110 120 1.440e-13
L602 120 499 6.325e-12
L603 510 810 6.325e-12
C112 810 820 1.440e-13
L604 820 599 6.325e-12

D1 3 400 tvs
D2 4 500 tvs

.MODEL tvs D
+(
+     RS = 6
+     BV = 4
+    IBV = 1E-6
+)

.ENDS EMI8141MUTAG

