*----------------------------------------------------------------------
* SPICE Model generated by Murata Manufacturing Co., Ltd.
* Copyright(C) Murata Manufacturing Co., Ltd.
* MURATA P/N : BLM15BC121SN1
* Property : Z@100MHz = 120[ohm]
*----------------------------------------------------------------------
* Applicable Conditions:
*   Frequency Range = 1MHz - 3GHz
*   Temperature = 25 degC
*   DC Bias Current = 0 A
*   Small Signal Operation
*----------------------------------------------------------------------
.SUBCKT BLM15BC121SN1 port1 port2
R1 port1 1 770.6
C2 1 2 6.966e-13
L1 port1 2 1.742e-7
R2 2 3 1.582
L2 2 3 1.189e-8
C1 port1 3 5.269e-13
R3 3 4 83.62
L3 3 4 1.010e-9
R4 4 port2 3.500e-1
.ENDS BLM15BC121SN1
*----------------------------------------------------------------------

 *----------------------------------------------------------------------
* SPICE Model generated by Murata Manufacturing Co., Ltd.
* Copyright(C) Murata Manufacturing Co., Ltd.
* MURATA P/N : BLM15PD121SN1
* Property : Z@100MHz = 120[ohm]
*----------------------------------------------------------------------
* Applicable Conditions:
*   Frequency Range = 1MHz - 3GHz
*   Temperature = 25 degC
*   DC Bias Current = 0 A
*   Small Signal Operation
*----------------------------------------------------------------------
.SUBCKT BLM15PD121SN1 port1 port2
R1 port1 1 119.4
L1 port1 1 3.029e-8
C2 1 2 6.046e-11
R2 2 3 113.4
L2 1 3 2.159e-7
C1 port1 3 6.464e-13
R3 3 4 7.525
L3 3 4 6.015e-9
R4 4 port2 6.600e-2
.ENDS BLM15PD121SN1
*----------------------------------------------------------------------


