*----------------------------------------------------------------------
* SPICE Model generated by Murata Manufacturing Co., Ltd.
* Copyright(C) Murata Manufacturing Co., Ltd.
* MURATA P/N : BLM18KG471SZ1
* Property : Z@100MHz = 470[ohm]
*----------------------------------------------------------------------
* Applicable Conditions:
*   Frequency Range = 1MHz - 3GHz
*   Temperature = 25 degC
*   DC Bias Current = 0 A
*   Small Signal Operation
*----------------------------------------------------------------------
.SUBCKT BLM18KG471SZ1 port1 port2
R1 port1 1 414.0
L1 port1 1 8.213e-7
C1 port1 2 9.349e-13
R2 1 2 138.7
L2 1 2 2.376e-6
R3 2 3 13.17
L3 2 3 8.103e-8
R4 3 port2 8.000e-2
.ENDS BLM18KG471SZ1
*----------------------------------------------------------------------
