*----------------------------------------------------------------------
* SPICE Model generated by Murata Manufacturing Co., Ltd.
* Copyright(C) Murata Manufacturing Co., Ltd.
* MURATA P/N : BLM18BA220SN1
* Property : Z@100MHz = 22[ohm]
*----------------------------------------------------------------------
* Applicable Conditions:
*   Frequency Range = 1MHz - 3GHz
*   Temperature = 25 degC
*   DC Bias Current = 0 A
*   Small Signal Operation
*----------------------------------------------------------------------
.SUBCKT BLM18BA220SN1 port1 port2
R1 port1 1 317.9
C2 1 2 6.474e-13
L1 port1 2 3.235e-8
R2 2 3 1.033
L2 2 3 3.776e-9
C1 port1 3 5.196e-13
R3 3 4 7430
L3 3 4 1.164e-9
R4 4 port2 1.500e-1
.ENDS BLM18BA220SN1
*----------------------------------------------------------------------

*----------------------------------------------------------------------
* SPICE Model generated by Murata Manufacturing Co., Ltd.
* Copyright(C) Murata Manufacturing Co., Ltd.
* MURATA P/N : BLM18KG102SZ1
* Property : Z@100MHz = 1000[ohm]
*----------------------------------------------------------------------
* Applicable Conditions:
*   Frequency Range = 1MHz - 3GHz
*   Temperature = 25 degC
*   DC Bias Current = 0 A
*   Small Signal Operation
*----------------------------------------------------------------------
.SUBCKT BLM18KG102SZ1 port1 port2
R1 port1 1 822.0
L1 port1 1 1.730e-6
C2 1 2 5.930e-10
R2 2 3 322.0
L2 1 3 4.300e-6
C1 port1 3 8.450e-13
R3 3 4 1.000e+7
L3 3 4 3.440e-9
R4 4 port2 1.500e-1
.ENDS BLM18KG102SZ1
*----------------------------------------------------------------------

*----------------------------------------------------------------------
* SPICE Model generated by Murata Manufacturing Co., Ltd.
* Copyright(C) Murata Manufacturing Co., Ltd.
* MURATA P/N : BLM18KG471SZ1
* Property : Z@100MHz = 470[ohm]
*----------------------------------------------------------------------
* Applicable Conditions:
*   Frequency Range = 1MHz - 3GHz
*   Temperature = 25 degC
*   DC Bias Current = 0 A
*   Small Signal Operation
*----------------------------------------------------------------------
.SUBCKT BLM18KG471SZ1 port1 port2
R1 port1 1 414.0
L1 port1 1 8.213e-7
C1 port1 2 9.349e-13
R2 1 2 138.7
L2 1 2 2.376e-6
R3 2 3 13.17
L3 2 3 8.103e-8
R4 3 port2 8.000e-2
.ENDS BLM18KG471SZ1
*----------------------------------------------------------------------

*----------------------------------------------------------------------
* SPICE Model generated by Murata Manufacturing Co., Ltd.
* Copyright(C) Murata Manufacturing Co., Ltd.
* MURATA P/N : BLM18SG260TZ1
* Property : Z@100MHz = 26[ohm]
*----------------------------------------------------------------------
* Applicable Conditions:
*   Frequency Range = 1MHz - 3GHz
*   Temperature = 25 degC
*   DC Bias Current = 0 A
*   Small Signal Operation
*----------------------------------------------------------------------
.SUBCKT BLM18SG260TZ1 port1 port2
R1 port1 1 18.49
C2 1 2 1.799e-9
L1 port1 2 1.312e-7
R2 2 3 13.20
L2 2 3 1.958e-8
C1 port1 3 8.717e-13
R3 3 4 243.7
L3 3 4 7.225e-10
R4 4 port2 4.000e-3
.ENDS BLM18SG260TZ1
*----------------------------------------------------------------------


