*----------------------------------------------------------------------
* SPICE Model generated by Murata Manufacturing Co., Ltd.
* Copyright(C) Murata Manufacturing Co., Ltd.
* MURATA P/N : BLM18KG102SZ1
* Property : Z@100MHz = 1000[ohm]
*----------------------------------------------------------------------
* Applicable Conditions:
*   Frequency Range = 1MHz - 3GHz
*   Temperature = 25 degC
*   DC Bias Current = 0 A
*   Small Signal Operation
*----------------------------------------------------------------------
.SUBCKT BLM18KG102SZ1 port1 port2
R1 port1 1 822.0
L1 port1 1 1.730e-6
C2 1 2 5.930e-10
R2 2 3 322.0
L2 1 3 4.300e-6
C1 port1 3 8.450e-13
R3 3 4 1.000e+7
L3 3 4 3.440e-9
R4 4 port2 1.500e-1
.ENDS BLM18KG102SZ1
*----------------------------------------------------------------------
