*
* This spice model was created using the Altium Spice Model Wizard
* Created: 23:18 on 25 February, 2023
*
* Component Name: BOURNS_CRM2512
*
.MODEL BOURNS_CRM2512  R
+(
+         TC1 = 100
+        DEFW = 3.10e-6
+        TNOM = 25
+)
*
* Spice model BOURNS_CRM2512  has been assigned the following parameters:
*
*        TC1: First order temperature coefficient...(Unit: Ohm/°C)
*       DEFW: Default width.........................(Unit: meters)
*       TNOM: Parameter measurement temperature.....(Unit: °C)
