*
* This spice model was created using the Altium Spice Model Wizard
* Created: 23:03 on 16 February, 2023
*
* Component Name: OHMITE_PCS2512
*
.MODEL OHMITE_PCS2512 R
+(
+         TC1 = 50
+        DEFW = 3.050e-6
+        TNOM = 25
+)
*
* Spice model OHMITE_PCS2512 has been assigned the following parameters:
*
*        TC1: First order temperature coefficient...(Unit: Ohm/°C)
*       DEFW: Default width.........................(Unit: meters)
*       TNOM: Parameter measurement temperature.....(Unit: °C)
