*
* This spice model was created using the Altium Spice Model Wizard
* Created: 23:14 on 16 February, 2023
*
* Description: Max resistance is 10 ohm
* Component Name: YAGEO_RC0201_10R
*
.MODEL YAGEO_RC0201_10R R
+(
+         TC1 = 350
+        DEFW = 0.3e-6
+        TNOM = 25
+)
*
* Spice model YAGEO_RC0201_10R has been assigned the following parameters:
*
*        TC1: First order temperature coefficient...(Unit: Ohm/°C)
*       DEFW: Default width.........................(Unit: meters)
*       TNOM: Parameter measurement temperature.....(Unit: °C)